nutrients.sol: written by SWAT+ editor v2.1.0 on 2023-05-30 09:55 for SWAT+ rev.60.5.4
name   dp   t_fc   lag   rad   dist   drain   pump   lat_ksat
mw24_1000   800   12   30   200   8000   40   0   2
