reservoir.con: written by SWAT+ editor v2.1.0 on 2023-05-30 10:38 for SWAT+ rev.60.5.4
      id  name                gis_id          area           lat           lon          elev       res               wst       cst      ovfl      rule   out_tot       obj_typ    obj_id       hyd_typ          frac  
       1  res01                    0       0.16002      59.62876      10.90414     114.52237         1     s59661n10782e         0         0         0         0  
       2  res02                    0       0.02645      59.64906      10.87954     110.72248         2     s59661n10782e         0         0         0         0  
       3  res03                    0       0.00765      59.61023      10.87958      89.29142         3     s59661n10782e         0         0         0         0  
       4  res04                    0       0.35287      59.69336      10.92726     158.01657         4     s59661n10782e         0         0         0         0  
       5  res05                    0       0.06261      59.62829      10.88438      89.99897         5     s59661n10782e         0         0         0         0  
       6  res06                    0       0.00947      59.64148      10.88052      92.45702         6     s59661n10782e         0         0         0         1           sdc        52           tot       1.00000  
       7  res07                    0       0.02017      59.64588      10.88429      84.57806         7     s59661n10782e         0         0         0         0  
       8  res08                    0       0.00771      59.65591      10.89219     102.54780         8     s59661n10782e         0         0         0         0  
       9  res09                    0       0.00989      59.65100      10.89709     111.55185         9     s59661n10782e         0         0         0         0  
      10  res10                    0       0.01353      59.65118      10.89611     109.49210        10     s59661n10782e         0         0         0         0  
      11  res11                    0       0.01517      59.65240      10.89644     112.14449        11     s59661n10782e         0         0         0         0  
      12  res12                    0       0.01579      59.66587      10.87854     116.85728        12     s59661n10782e         0         0         0         0  
      13  res13                    0       0.03466      59.66238      10.89273     113.62468        13     s59661n10782e         0         0         0         0  
      14  res14                    0       0.02366      59.66391      10.89225     110.46899        14     s59661n10782e         0         0         0         0  
      15  res15                    0       0.02676      59.66698      10.89743     123.69331        15     s59661n10782e         0         0         0         0  
      16  res16                    0       0.00674      59.67599      10.85728     130.64898        16     s59661n10782e         0         0         0         0  
      17  res17                    0       0.00799      59.67599      10.85756     129.71759        17     s59661n10782e         0         0         0         0  
      18  res18                    0       0.00800      59.68072      10.86422     114.29170        18     s59661n10782e         0         0         0         0  
      19  res19                    0       0.02016      59.68044      10.86072     112.16777        19     s59661n10782e         0         0         0         0  
      20  res20                    0       0.01154      59.68372      10.86290     113.58419        20     s59661n10782e         0         0         0         0  
      21  res21                    0       0.02680      59.69687      10.85989     118.60223        21     s59661n10782e         0         0         0         0  
      22  res22                    0       0.00944      59.69339      10.89993     124.25014        22     s59661n10782e         0         0         0         0  
      23  res23                    0       0.04380      59.69403      10.90488     126.72264        23     s59661n10782e         0         0         0         0  
      24  res24                    0       0.00615      59.69388      10.89722     116.00496        24     s59661n10782e         0         0         0         0  
      25  res25                    0       0.69431      59.69608      10.95858     219.41773        25     s59661n10782e         0         0         0         1           sdc        85           tot       1.00000  
      26  res26                    0       0.16423      59.68993      10.92618     151.57640        26     s59661n10782e         0         0         0         0  
      27  res27                    0       4.11120      59.68693      10.95779     176.17105        27     s59661n10782e         0         0         0         1           sdc       156           tot       1.00000  
      28  res28                    0       0.01759      59.68106      10.94552     183.06599        28     s59661n10782e         0         0         0         0  
      29  res29                    0       0.01511      59.67069      10.94148     153.26867        29     s59661n10782e         0         0         0         0  
      30  res30                    0       0.29743      59.68454      10.91178     141.89224        30     s59661n10782e         0         0         0         0  
      31  res31                    0       0.09211      59.68499      10.91256     141.13966        31     s59661n10782e         0         0         0         0  
      32  res32                    0       0.00584      59.67943      10.91845     131.44928        32     s59661n10782e         0         0         0         0  
      33  res33                    0       0.01132      59.70732      10.85523     126.79866        33     s59661n10782e         0         0         0         0  
      34  res34                    0       0.34820      59.71340      10.86806     119.96894        34     s59661n10782e         0         0         0         1           sdc       117           tot       1.00000  
      35  res35                    0       0.05144      59.60035      10.89457      63.82400        35     s59661n10782e         0         0         0         1           sdc       119           tot       1.00000  
      36  res36                    0       0.00558      59.71076      10.90957     158.58023        36     s59661n10782e         0         0         0         0  
      37  res37                    0       0.02066      59.63435      10.88699     105.92425        37     s59661n10782e         0         0         0         0  
      38  res38                    0       0.03590      59.62177      10.87901      68.81075        38     s59661n10782e         0         0         0         0  
      39  res39                    0       0.03799      59.60854      10.88538      97.87207        39     s59661n10782e         0         0         0         0  
      40  res40                    0       0.01365      59.61314      10.89533     101.80246        40     s59661n10782e         0         0         0         0  
      41  res41                    0       0.12237      59.69606      10.87151     107.96304        41     s59661n10782e         0         0         0         0  
      42  res42                    0       0.01924      59.66691      10.93476     150.27652        42     s59661n10782e         0         0         0         0  
      43  res43                    0       0.00913      59.66173      10.94966     138.29826        43     s59661n10782e         0         0         0         1           sdc       301           tot       1.00000  
      44  res44                    0       0.00841      59.66205      10.94001     150.15770        44     s59661n10782e         0         0         0         0  
      45  res45                    0       0.03308      59.67183      10.90486     116.02844        45     s59661n10782e         0         0         0         0  
      46  res46                    0       0.08959      59.67326      10.87566     107.75421        46     s59661n10782e         0         0         0         1           sdc       356           tot       1.00000  
      47  res47                    0       0.03343      59.67081      10.87301     128.52933        47     s59661n10782e         0         0         0         0  
      48  res48                    0       0.25052      59.67482      10.85844     126.63923        48     s59661n10782e         0         0         0         0  
      49  res49                    0       0.01638      59.62125      10.88363      91.72923        49     s59661n10782e         0         0         0         0  
      50  res50                    0       0.01151      59.70957      10.85248     116.84158        50     s59661n10782e         0         0         0         0  
      51  res51                    0       0.00641      59.62975      10.90839     120.01881        51     s59661n10782e         0         0         0         0  
      52  res52                    0       0.09968      59.62604      10.90810     123.97897        52     s59661n10782e         0         0         0         0  
      53  res53                    0       0.00611      59.66846      10.89523     122.09722        53     s59661n10782e         0         0         0         0  
      54  res54                    0       0.00693      59.66833      10.89545     123.41924        54     s59661n10782e         0         0         0         0  
      55  res55                    0       0.01620      59.66860      10.89408     114.88075        55     s59661n10782e         0         0         0         0  
      56  res56                    0       0.01031      59.67272      10.89283     106.75944        56     s59661n10782e         0         0         0         0  
      57  res57                    0       0.01171      59.67296      10.89240     106.71262        57     s59661n10782e         0         0         0         0  
      58  res58                    0       0.01720      59.68949      10.86747     118.66505        58     s59661n10782e         0         0         0         0  
