tiledrain.str: written by SWAT+ editor v2.1.0 on 2023-05-30 10:39 for SWAT+ rev.60.5.4 then modified by CS10 workflow at 2023-06-01 14:40:45.965399
name   dp   t_fc   lag   rad   dist   drain   pump   lat_ksat
mw24_1000   800   12   30   200   8000   40   0   2
