ls_unit.ele: written by SWAT+ editor v2.1.0 on 2023-05-30 10:39 for SWAT+ rev.60.5.4
      id  name                   obj_typ  obj_typ_no      bsn_frac      sub_frac      reg_frac  
       1  hru0001                    hru           1     4.4539E-5       1.00000       0.00000  
       2  hru0002                    hru           2     6.5162E-5       1.00000       0.00000  
       3  hru0003                    hru           3     3.0130E-5       1.00000       0.00000  
       4  hru0004                    hru           4     1.4213E-5       1.00000       0.00000  
       5  hru0005                    hru           5     7.2593E-6       1.00000       0.00000  
       6  hru0006                    hru           6     2.5492E-4       1.00000       0.00000  
       7  hru0007                    hru           7     4.7507E-6       1.00000       0.00000  
       8  hru0008                    hru           8     4.0078E-5       1.00000       0.00000  
       9  hru0009                    hru           9     9.1756E-4       1.00000       0.00000  
      10  hru0010                    hru          10     9.5014E-4       1.00000       0.00000  
      11  hru0011                    hru          11     4.8182E-4       1.00000       0.00000  
      12  hru0012                    hru          12     4.0354E-4       1.00000       0.00000  
      13  hru0013                    hru          13     1.1445E-3       1.00000       0.00000  
      14  hru0014                    hru          14     5.9304E-4       1.00000       0.00000  
      15  hru0015                    hru          15     2.7317E-5       1.00000       0.00000  
      16  hru0016                    hru          16     2.2247E-5       1.00000       0.00000  
      17  hru0017                    hru          17     1.0799E-6       1.00000       0.00000  
      18  hru0018                    hru          18     3.2234E-5       1.00000       0.00000  
      19  hru0019                    hru          19     1.6336E-5       1.00000       0.00000  
      20  hru0020                    hru          20     3.5797E-5       1.00000       0.00000  
      21  hru0021                    hru          21     7.0840E-5       1.00000       0.00000  
      22  hru0022                    hru          22     4.1146E-5       1.00000       0.00000  
      23  hru0023                    hru          23     9.0281E-6       1.00000       0.00000  
      24  hru0024                    hru          24     1.8485E-5       1.00000       0.00000  
      25  hru0025                    hru          25     2.5312E-5       1.00000       0.00000  
      26  hru0026                    hru          26     2.5890E-5       1.00000       0.00000  
      27  hru0027                    hru          27     1.4646E-5       1.00000       0.00000  
      28  hru0028                    hru          28     9.1160E-6       1.00000       0.00000  
      29  hru0029                    hru          29     6.1064E-6       1.00000       0.00000  
      30  hru0030                    hru          30     8.7537E-6       1.00000       0.00000  
      31  hru0031                    hru          31     3.2566E-6       1.00000       0.00000  
      32  hru0032                    hru          32     1.6171E-5       1.00000       0.00000  
      33  hru0033                    hru          33     1.0565E-5       1.00000       0.00000  
      34  hru0034                    hru          34     1.2375E-5       1.00000       0.00000  
      35  hru0035                    hru          35     8.6373E-6       1.00000       0.00000  
      36  hru0036                    hru          36     1.3210E-5       1.00000       0.00000  
      37  hru0037                    hru          37     2.2195E-5       1.00000       0.00000  
      38  hru0038                    hru          38     1.7461E-5       1.00000       0.00000  
      39  hru0039                    hru          39     2.4074E-5       1.00000       0.00000  
      40  hru0040                    hru          40     2.0286E-6       1.00000       0.00000  
      41  hru0041                    hru          41     5.6932E-5       1.00000       0.00000  
      42  hru0042                    hru          42     7.1435E-6       1.00000       0.00000  
      43  hru0043                    hru          43     3.0584E-5       1.00000       0.00000  
      44  hru0044                    hru          44     1.2076E-5       1.00000       0.00000  
      45  hru0045                    hru          45     2.7752E-5       1.00000       0.00000  
      46  hru0046                    hru          46     5.9351E-6       1.00000       0.00000  
      47  hru0047                    hru          47     4.0746E-6       1.00000       0.00000  
      48  hru0048                    hru          48     1.4636E-6       1.00000       0.00000  
      49  hru0049                    hru          49     1.1708E-6       1.00000       0.00000  
      50  hru0050                    hru          50     6.3833E-5       1.00000       0.00000  
      51  hru0051                    hru          51     7.3670E-6       1.00000       0.00000  
      52  hru0052                    hru          52     3.1804E-5       1.00000       0.00000  
      53  hru0053                    hru          53     1.9278E-5       1.00000       0.00000  
      54  hru0054                    hru          54     4.9228E-6       1.00000       0.00000  
      55  hru0055                    hru          55     4.2690E-5       1.00000       0.00000  
      56  hru0056                    hru          56     4.2207E-4       1.00000       0.00000  
      57  hru0057                    hru          57     1.1401E-4       1.00000       0.00000  
      58  hru0058                    hru          58     1.7287E-4       1.00000       0.00000  
      59  hru0059                    hru          59     2.2718E-4       1.00000       0.00000  
      60  hru0060                    hru          60     1.2868E-6       1.00000       0.00000  
      61  hru0061                    hru          61     1.0170E-4       1.00000       0.00000  
      62  hru0062                    hru          62     5.3169E-4       1.00000       0.00000  
      63  hru0063                    hru          63     2.1907E-4       1.00000       0.00000  
      64  hru0064                    hru          64     3.9783E-6       1.00000       0.00000  
      65  hru0065                    hru          65     5.6336E-6       1.00000       0.00000  
      66  hru0066                    hru          66     5.7474E-6       1.00000       0.00000  
      67  hru0067                    hru          67     4.8267E-6       1.00000       0.00000  
      68  hru0068                    hru          68     1.2536E-6       1.00000       0.00000  
      69  hru0069                    hru          69     1.9379E-5       1.00000       0.00000  
      70  hru0070                    hru          70     7.4336E-6       1.00000       0.00000  
      71  hru0071                    hru          71     2.8833E-5       1.00000       0.00000  
      72  hru0072                    hru          72     1.0202E-4       1.00000       0.00000  
      73  hru0073                    hru          73     4.7670E-5       1.00000       0.00000  
      74  hru0074                    hru          74     1.7964E-4       1.00000       0.00000  
      75  hru0075                    hru          75     6.3890E-5       1.00000       0.00000  
      76  hru0076                    hru          76     4.3976E-5       1.00000       0.00000  
      77  hru0077                    hru          77     1.9168E-6       1.00000       0.00000  
      78  hru0078                    hru          78     3.8774E-6       1.00000       0.00000  
      79  hru0079                    hru          79     1.0140E-4       1.00000       0.00000  
      80  hru0080                    hru          80     2.5456E-4       1.00000       0.00000  
      81  hru0081                    hru          81     7.2207E-6       1.00000       0.00000  
      82  hru0082                    hru          82     4.3757E-3       1.00000       0.00000  
      83  hru0083                    hru          83     5.6870E-4       1.00000       0.00000  
      84  hru0084                    hru          84     5.7443E-4       1.00000       0.00000  
      85  hru0085                    hru          85     9.2864E-6       1.00000       0.00000  
      86  hru0086                    hru          86     1.4989E-3       1.00000       0.00000  
      87  hru0087                    hru          87     3.6342E-5       1.00000       0.00000  
      88  hru0088                    hru          88     1.4207E-3       1.00000       0.00000  
      89  hru0089                    hru          89     1.9851E-6       1.00000       0.00000  
      90  hru0090                    hru          90     2.8713E-3       1.00000       0.00000  
      91  hru0091                    hru          91     1.4830E-5       1.00000       0.00000  
      92  hru0092                    hru          92     4.5008E-5       1.00000       0.00000  
      93  hru0093                    hru          93     1.8027E-5       1.00000       0.00000  
      94  hru0094                    hru          94     2.4828E-5       1.00000       0.00000  
      95  hru0095                    hru          95     2.3518E-6       1.00000       0.00000  
      96  hru0096                    hru          96     6.3416E-6       1.00000       0.00000  
      97  hru0097                    hru          97     2.1229E-5       1.00000       0.00000  
      98  hru0098                    hru          98     2.4397E-5       1.00000       0.00000  
      99  hru0099                    hru          99     8.7450E-6       1.00000       0.00000  
     100  hru0100                    hru         100     7.3254E-6       1.00000       0.00000  
     101  hru0101                    hru         101     4.9541E-6       1.00000       0.00000  
     102  hru0102                    hru         102     1.4012E-5       1.00000       0.00000  
     103  hru0103                    hru         103     1.0830E-5       1.00000       0.00000  
     104  hru0104                    hru         104     9.6240E-6       1.00000       0.00000  
     105  hru0105                    hru         105     8.8875E-5       1.00000       0.00000  
     106  hru0106                    hru         106     8.3833E-6       1.00000       0.00000  
     107  hru0107                    hru         107     6.7279E-6       1.00000       0.00000  
     108  hru0108                    hru         108     4.3923E-6       1.00000       0.00000  
     109  hru0109                    hru         109     6.6099E-6       1.00000       0.00000  
     110  hru0110                    hru         110     7.2703E-6       1.00000       0.00000  
     111  hru0111                    hru         111     6.9847E-6       1.00000       0.00000  
     112  hru0112                    hru         112     9.2604E-6       1.00000       0.00000  
     113  hru0113                    hru         113     4.6732E-6       1.00000       0.00000  
     114  hru0114                    hru         114     8.6347E-6       1.00000       0.00000  
     115  hru0115                    hru         115     5.9027E-6       1.00000       0.00000  
     116  hru0116                    hru         116     6.2344E-6       1.00000       0.00000  
     117  hru0117                    hru         117     9.4560E-6       1.00000       0.00000  
     118  hru0118                    hru         118     1.2038E-5       1.00000       0.00000  
     119  hru0119                    hru         119     8.3656E-6       1.00000       0.00000  
     120  hru0120                    hru         120     1.7195E-5       1.00000       0.00000  
     121  hru0121                    hru         121     1.3134E-5       1.00000       0.00000  
     122  hru0122                    hru         122     1.2148E-5       1.00000       0.00000  
     123  hru0123                    hru         123     1.1872E-5       1.00000       0.00000  
     124  hru0124                    hru         124     1.1590E-5       1.00000       0.00000  
     125  hru0125                    hru         125     1.4317E-5       1.00000       0.00000  
     126  hru0126                    hru         126     1.3164E-5       1.00000       0.00000  
     127  hru0127                    hru         127     2.8573E-6       1.00000       0.00000  
     128  hru0128                    hru         128     7.3360E-6       1.00000       0.00000  
     129  hru0129                    hru         129     5.4428E-6       1.00000       0.00000  
     130  hru0130                    hru         130     9.8451E-6       1.00000       0.00000  
     131  hru0131                    hru         131     7.9010E-6       1.00000       0.00000  
     132  hru0132                    hru         132     5.4219E-6       1.00000       0.00000  
     133  hru0133                    hru         133     7.7916E-6       1.00000       0.00000  
     134  hru0134                    hru         134     8.8572E-6       1.00000       0.00000  
     135  hru0135                    hru         135     7.0367E-6       1.00000       0.00000  
     136  hru0136                    hru         136     9.8900E-6       1.00000       0.00000  
     137  hru0137                    hru         137     1.4784E-5       1.00000       0.00000  
     138  hru0138                    hru         138     1.3394E-5       1.00000       0.00000  
     139  hru0139                    hru         139     8.6840E-6       1.00000       0.00000  
     140  hru0140                    hru         140     1.0176E-5       1.00000       0.00000  
     141  hru0141                    hru         141     1.3454E-5       1.00000       0.00000  
     142  hru0142                    hru         142     3.8174E-6       1.00000       0.00000  
     143  hru0143                    hru         143     1.6456E-6       1.00000       0.00000  
     144  hru0144                    hru         144     6.4457E-6       1.00000       0.00000  
     145  hru0145                    hru         145     2.0703E-6       1.00000       0.00000  
     146  hru0146                    hru         146     2.2296E-5       1.00000       0.00000  
     147  hru0147                    hru         147     2.0532E-5       1.00000       0.00000  
     148  hru0148                    hru         148     1.2783E-5       1.00000       0.00000  
     149  hru0149                    hru         149     6.3638E-6       1.00000       0.00000  
     150  hru0150                    hru         150     1.9579E-5       1.00000       0.00000  
     151  hru0151                    hru         151     1.7865E-5       1.00000       0.00000  
     152  hru0152                    hru         152     1.5248E-5       1.00000       0.00000  
     153  hru0153                    hru         153     2.6067E-6       1.00000       0.00000  
     154  hru0154                    hru         154     7.7246E-6       1.00000       0.00000  
     155  hru0155                    hru         155     1.4838E-5       1.00000       0.00000  
     156  hru0156                    hru         156     1.3467E-5       1.00000       0.00000  
     157  hru0157                    hru         157     1.1484E-5       1.00000       0.00000  
     158  hru0158                    hru         158     7.5352E-5       1.00000       0.00000  
     159  hru0159                    hru         159     7.5221E-5       1.00000       0.00000  
     160  hru0160                    hru         160     3.2315E-5       1.00000       0.00000  
     161  hru0161                    hru         161     1.8402E-5       1.00000       0.00000  
     162  hru0162                    hru         162     1.9377E-5       1.00000       0.00000  
     163  hru0163                    hru         163     1.6812E-5       1.00000       0.00000  
     164  hru0164                    hru         164     1.2421E-5       1.00000       0.00000  
     165  hru0165                    hru         165     7.9403E-6       1.00000       0.00000  
     166  hru0166                    hru         166     5.1451E-6       1.00000       0.00000  
     167  hru0167                    hru         167     1.3187E-6       1.00000       0.00000  
     168  hru0168                    hru         168     6.9011E-5       1.00000       0.00000  
     169  hru0169                    hru         169     1.7206E-5       1.00000       0.00000  
     170  hru0170                    hru         170     7.2917E-6       1.00000       0.00000  
     171  hru0171                    hru         171     7.8083E-5       1.00000       0.00000  
     172  hru0172                    hru         172     2.2686E-6       1.00000       0.00000  
     173  hru0173                    hru         173     4.3809E-6       1.00000       0.00000  
     174  hru0174                    hru         174     6.6162E-6       1.00000       0.00000  
     175  hru0175                    hru         175     1.1306E-6       1.00000       0.00000  
     176  hru0176                    hru         176     3.7077E-6       1.00000       0.00000  
     177  hru0177                    hru         177     9.5764E-5       1.00000       0.00000  
     178  hru0178                    hru         178     3.7315E-4       1.00000       0.00000  
     179  hru0179                    hru         179     2.8851E-5       1.00000       0.00000  
     180  hru0180                    hru         180     2.0348E-4       1.00000       0.00000  
     181  hru0181                    hru         181     4.6254E-5       1.00000       0.00000  
     182  hru0182                    hru         182     1.5114E-5       1.00000       0.00000  
     183  hru0183                    hru         183     4.0830E-5       1.00000       0.00000  
     184  hru0184                    hru         184     1.6666E-5       1.00000       0.00000  
     185  hru0185                    hru         185     1.9167E-5       1.00000       0.00000  
     186  hru0186                    hru         186     9.6715E-5       1.00000       0.00000  
     187  hru0187                    hru         187     3.4967E-5       1.00000       0.00000  
     188  hru0188                    hru         188     2.8648E-5       1.00000       0.00000  
     189  hru0189                    hru         189     3.7651E-5       1.00000       0.00000  
     190  hru0190                    hru         190     1.7096E-4       1.00000       0.00000  
     191  hru0191                    hru         191     2.1717E-5       1.00000       0.00000  
     192  hru0192                    hru         192     1.0019E-5       1.00000       0.00000  
     193  hru0193                    hru         193     2.9988E-6       1.00000       0.00000  
     194  hru0194                    hru         194     1.6948E-6       1.00000       0.00000  
     195  hru0195                    hru         195     2.6178E-6       1.00000       0.00000  
     196  hru0196                    hru         196     3.5677E-6       1.00000       0.00000  
     197  hru0197                    hru         197     2.0071E-5       1.00000       0.00000  
     198  hru0198                    hru         198     2.4693E-6       1.00000       0.00000  
     199  hru0199                    hru         199     2.1813E-6       1.00000       0.00000  
     200  hru0200                    hru         200     4.8362E-6       1.00000       0.00000  
     201  hru0201                    hru         201     4.3413E-6       1.00000       0.00000  
     202  hru0202                    hru         202     2.3074E-6       1.00000       0.00000  
     203  hru0203                    hru         203     1.5949E-6       1.00000       0.00000  
     204  hru0204                    hru         204     7.9102E-6       1.00000       0.00000  
     205  hru0205                    hru         205     3.9569E-6       1.00000       0.00000  
     206  hru0206                    hru         206     8.8649E-5       1.00000       0.00000  
     207  hru0207                    hru         207     2.2526E-4       1.00000       0.00000  
     208  hru0208                    hru         208     3.0990E-5       1.00000       0.00000  
     209  hru0209                    hru         209     2.0271E-5       1.00000       0.00000  
     210  hru0210                    hru         210     5.3988E-4       1.00000       0.00000  
     211  hru0211                    hru         211     1.6696E-6       1.00000       0.00000  
     212  hru0212                    hru         212     1.5393E-4       1.00000       0.00000  
     213  hru0213                    hru         213     4.0731E-6       1.00000       0.00000  
     214  hru0214                    hru         214     2.6888E-6       1.00000       0.00000  
     215  hru0215                    hru         215     1.5423E-4       1.00000       0.00000  
     216  hru0216                    hru         216     4.4326E-5       1.00000       0.00000  
     217  hru0217                    hru         217     1.1618E-5       1.00000       0.00000  
     218  hru0218                    hru         218     2.9264E-5       1.00000       0.00000  
     219  hru0219                    hru         219     1.6432E-4       1.00000       0.00000  
     220  hru0220                    hru         220     3.4028E-4       1.00000       0.00000  
     221  hru0221                    hru         221     2.7005E-4       1.00000       0.00000  
     222  hru0222                    hru         222     1.0601E-5       1.00000       0.00000  
     223  hru0223                    hru         223     7.4292E-6       1.00000       0.00000  
     224  hru0224                    hru         224     1.0377E-5       1.00000       0.00000  
     225  hru0225                    hru         225     1.1479E-5       1.00000       0.00000  
     226  hru0226                    hru         226     5.9259E-6       1.00000       0.00000  
     227  hru0227                    hru         227     7.7034E-6       1.00000       0.00000  
     228  hru0228                    hru         228     1.0348E-5       1.00000       0.00000  
     229  hru0229                    hru         229     1.6234E-6       1.00000       0.00000  
     230  hru0230                    hru         230     8.8549E-6       1.00000       0.00000  
     231  hru0231                    hru         231     1.1890E-5       1.00000       0.00000  
     232  hru0232                    hru         232     3.7767E-6       1.00000       0.00000  
     233  hru0233                    hru         233     1.1468E-5       1.00000       0.00000  
     234  hru0234                    hru         234     5.8782E-5       1.00000       0.00000  
     235  hru0235                    hru         235     4.5643E-6       1.00000       0.00000  
     236  hru0236                    hru         236     1.3796E-5       1.00000       0.00000  
     237  hru0237                    hru         237     1.0233E-5       1.00000       0.00000  
     238  hru0238                    hru         238     2.2841E-5       1.00000       0.00000  
     239  hru0239                    hru         239     1.5917E-4       1.00000       0.00000  
     240  hru0240                    hru         240     1.1799E-5       1.00000       0.00000  
     241  hru0241                    hru         241     7.9909E-7       1.00000       0.00000  
     242  hru0242                    hru         242     2.7502E-5       1.00000       0.00000  
     243  hru0243                    hru         243     6.9439E-6       1.00000       0.00000  
     244  hru0244                    hru         244     4.6569E-5       1.00000       0.00000  
     245  hru0245                    hru         245     9.3283E-4       1.00000       0.00000  
     246  hru0246                    hru         246     1.1797E-6       1.00000       0.00000  
     247  hru0247                    hru         247     4.0290E-6       1.00000       0.00000  
     248  hru0248                    hru         248     2.2047E-5       1.00000       0.00000  
     249  hru0249                    hru         249     3.5815E-5       1.00000       0.00000  
     250  hru0250                    hru         250     2.3765E-6       1.00000       0.00000  
     251  hru0251                    hru         251     2.7274E-5       1.00000       0.00000  
     252  hru0252                    hru         252     2.3346E-5       1.00000       0.00000  
     253  hru0253                    hru         253     1.0300E-4       1.00000       0.00000  
     254  hru0254                    hru         254     1.5136E-5       1.00000       0.00000  
     255  hru0255                    hru         255     2.8760E-6       1.00000       0.00000  
     256  hru0256                    hru         256     3.1055E-6       1.00000       0.00000  
     257  hru0257                    hru         257     2.3033E-5       1.00000       0.00000  
     258  hru0258                    hru         258     2.4907E-5       1.00000       0.00000  
     259  hru0259                    hru         259     1.4768E-5       1.00000       0.00000  
     260  hru0260                    hru         260     1.2738E-5       1.00000       0.00000  
     261  hru0261                    hru         261     1.6098E-4       1.00000       0.00000  
     262  hru0262                    hru         262     2.9819E-5       1.00000       0.00000  
     263  hru0263                    hru         263     7.8629E-4       1.00000       0.00000  
     264  hru0264                    hru         264     8.7687E-4       1.00000       0.00000  
     265  hru0265                    hru         265     5.4646E-6       1.00000       0.00000  
     266  hru0266                    hru         266     6.2091E-6       1.00000       0.00000  
     267  hru0267                    hru         267     2.2201E-5       1.00000       0.00000  
     268  hru0268                    hru         268     1.0147E-5       1.00000       0.00000  
     269  hru0269                    hru         269     1.2513E-5       1.00000       0.00000  
     270  hru0270                    hru         270     5.8829E-5       1.00000       0.00000  
     271  hru0271                    hru         271     3.1182E-5       1.00000       0.00000  
     272  hru0272                    hru         272     6.6575E-6       1.00000       0.00000  
     273  hru0273                    hru         273     4.1449E-5       1.00000       0.00000  
     274  hru0274                    hru         274     1.5235E-5       1.00000       0.00000  
     275  hru0275                    hru         275     8.8897E-6       1.00000       0.00000  
     276  hru0276                    hru         276     4.2494E-6       1.00000       0.00000  
     277  hru0277                    hru         277     5.6548E-5       1.00000       0.00000  
     278  hru0278                    hru         278     1.1677E-5       1.00000       0.00000  
     279  hru0279                    hru         279     1.1014E-4       1.00000       0.00000  
     280  hru0280                    hru         280     7.5240E-5       1.00000       0.00000  
     281  hru0281                    hru         281     8.6289E-6       1.00000       0.00000  
     282  hru0282                    hru         282     3.5717E-6       1.00000       0.00000  
     283  hru0283                    hru         283     5.1108E-6       1.00000       0.00000  
     284  hru0284                    hru         284     6.3125E-6       1.00000       0.00000  
     285  hru0285                    hru         285     6.6127E-5       1.00000       0.00000  
     286  hru0286                    hru         286     1.7747E-5       1.00000       0.00000  
     287  hru0287                    hru         287     6.1219E-6       1.00000       0.00000  
     288  hru0288                    hru         288     1.3165E-5       1.00000       0.00000  
     289  hru0289                    hru         289     1.7037E-5       1.00000       0.00000  
     290  hru0290                    hru         290     1.8499E-5       1.00000       0.00000  
     291  hru0291                    hru         291     2.0841E-6       1.00000       0.00000  
     292  hru0292                    hru         292     1.0386E-5       1.00000       0.00000  
     293  hru0293                    hru         293     2.0253E-5       1.00000       0.00000  
     294  hru0294                    hru         294     6.8298E-6       1.00000       0.00000  
     295  hru0295                    hru         295     6.8496E-5       1.00000       0.00000  
     296  hru0296                    hru         296     3.5736E-6       1.00000       0.00000  
     297  hru0297                    hru         297     1.2403E-4       1.00000       0.00000  
     298  hru0298                    hru         298     1.3784E-5       1.00000       0.00000  
     299  hru0299                    hru         299     6.5135E-5       1.00000       0.00000  
     300  hru0300                    hru         300     2.4299E-5       1.00000       0.00000  
     301  hru0301                    hru         301     5.7532E-6       1.00000       0.00000  
     302  hru0302                    hru         302     4.5175E-5       1.00000       0.00000  
     303  hru0303                    hru         303     4.6890E-5       1.00000       0.00000  
     304  hru0304                    hru         304     2.4653E-4       1.00000       0.00000  
     305  hru0305                    hru         305     2.6846E-4       1.00000       0.00000  
     306  hru0306                    hru         306     6.1733E-5       1.00000       0.00000  
     307  hru0307                    hru         307     7.8193E-5       1.00000       0.00000  