nutrients.sol: written by SWAT+ editor v2.1.0 on 2023-05-30 10:39 for SWAT+ rev.60.5.4 and modified by the CS10 workflow on 2023-06-02 17:36:12.177017
name   exp_co   lab_p   nitrate   fr_hum_act   hum_c_n   hum_c_p   inorgp   watersol_p   h3a_p   mehlich_p   bray_strong_p   description
soilnut1   0.00050   20   8.5   0.02000   10.00000   80.00000   35.1   0.4   0.25000   1.20000   0.85000   
