plant.ini: written by SWAT+ editor v2.1.0 on 2023-05-30 10:39 for SWAT+ rev.60.5.4
pcom_name          plt_cnt  rot_yr_ini          plt_name     lc_status      lai_init       bm_init      phu_init      plnt_pop      yrs_init      rsd_init  
nopl_comm                1         1  
                                        null             n       0.00000       0.00000       0.00000       0.00000       0.00000       0.00000  
