plant.ini: written by SWAT+ editor v2.1.0 on 2023-05-30 10:39 for SWAT+ rev.60.5.4 and edited with SWATfarmR 2.0.5 on 2023-05-30 14:34:07.872327
pcom_name          plt_cnt  rot_yr_ini          plt_name     lc_status      lai_init       bm_init      phu_init      plnt_pop      yrs_init      rsd_init  
a_001f_1_drn_comm_1731_1       1           1
                                                    wwht             y             1          1000             0             0             1          1000
a_001f_1_drn_comm_1768_1       1           1
                                                    wwht             y             1          1000             0             0             1          1000
a_001f_2_drn_comm_1556_1       1           1
                                                    wwht             y             1          1000             0             0             1          1000
a_001f_2_drn_comm_1566_1       1           1
                                                    wwht             y             1          1000             0             0             1          1000
a_001f_2_drn_comm_1735_1       1           1
                                                    wwht             y             1          1000             0             0             1          1000
a_001f_2_drn_comm_1736_1       1           1
                                                    wwht             y             1          1000             0             0             1          1000
a_001f_3_drn_comm_1733_1       1           1
                                                    wwht             y             1          1000             0             0             1          1000
a_001f_3_drn_comm_1734_1       1           1
                                                    wwht             y             1          1000             0             0             1          1000
a_001f_3_drn_comm_1769_1       1           1
                                                    wwht             y             1          1000             0             0             1          1000
a_001f_3_drn_comm_1774_1       1           1
                                                    wwht             y             1          1000             0             0             1          1000
a_001f_3_drn_comm_1775_1       1           1
                                                    wwht             y             1          1000             0             0             1          1000
a_001f_3_drn_comm_1776_1       1           1
                                                    wwht             y             1          1000             0             0             1          1000
a_001f_3_drn_comm_1777_1       1           1
                                                    wwht             y             1          1000             0             0             1          1000
a_001f_3_drn_comm_1778_1       1           1
                                                    wwht             y             1          1000             0             0             1          1000
a_001f_3_drn_comm_1780_1       1           1
                                                    wwht             y             1          1000             0             0             1          1000
a_001f_3_drn_comm_1781_1       1           1
                                                    wwht             y             1          1000             0             0             1          1000
a_001f_4_drn_comm_1732_1       1           1
                                                    wwht             y             1          1000             0             0             1          1000
a_001f_4_drn_comm_4028_1       1           1
                                                    wwht             y             1          1000             0             0             1          1000
a_001f_5_drn_comm_1554_1       1           1
                                                    wwht             y             1          1000             0             0             1          1000
a_001f_5_drn_comm_1564_1       1           1
                                                    wwht             y             1          1000             0             0             1          1000
a_001f_5_drn_comm_56_1       1           1
                                                    wwht             y             1          1000             0             0             1          1000
a_001f_5_drn_comm_65_1       1           1
                                                    wwht             y             1          1000             0             0             1          1000
a_001f_5_drn_comm_9_1       1           1
                                                    wwht             y             1          1000             0             0             1          1000
a_001f_6_drn_comm_1555_1       1           1
                                                    wwht             y             1          1000             0             0             1          1000
a_001f_6_drn_comm_1565_1       1           1
                                                    wwht             y             1          1000             0             0             1          1000
a_001f_6_drn_comm_1567_1       1           1
                                                    wwht             y             1          1000             0             0             1          1000
a_001f_7_drn_comm_1631_1       1           1
                                                    wwht             y             1          1000             0             0             1          1000
a_001f_7_drn_comm_8_1       1           1
                                                    wwht             y             1          1000             0             0             1          1000
a_003f_1_drn_comm_4588_1       1           1
                                                    wwht             y             1          1000             0             0             1          1000
a_003f_1_drn_comm_4593_1       1           1
                                                    wwht             y             1          1000             0             0             1          1000
a_003f_1_drn_comm_4595_1       1           1
                                                    wwht             y             1          1000             0             0             1          1000
a_003f_1_drn_comm_4609_1       1           1
                                                    wwht             y             1          1000             0             0             1          1000
a_003f_1_drn_comm_4610_1       1           1
                                                    wwht             y             1          1000             0             0             1          1000
a_003f_2_drn_comm_157_1       1           1
                                                    wwht             y             1          1000             0             0             1          1000
a_003f_2_drn_comm_177_1       1           1
                                                    wwht             y             1          1000             0             0             1          1000
a_003f_2_drn_comm_80_1       1           1
                                                    wwht             y             1          1000             0             0             1          1000
a_003f_2_drn_comm_81_1       1           1
                                                    wwht             y             1          1000             0             0             1          1000
a_004f_1_drn_comm_158_1       1           1
                                                    wwht             y             1          1000             0             0             1          1000
a_004f_1_drn_comm_159_1       1           1
                                                    wwht             y             1          1000             0             0             1          1000
a_004f_1_drn_comm_178_1       1           1
                                                    wwht             y             1          1000             0             0             1          1000
a_004f_1_drn_comm_196_1       1           1
                                                    wwht             y             1          1000             0             0             1          1000
a_004f_1_drn_comm_3723_1       1           1
                                                    wwht             y             1          1000             0             0             1          1000
a_004f_1_drn_comm_3724_1       1           1
                                                    wwht             y             1          1000             0             0             1          1000
a_004f_1_drn_comm_3744_1       1           1
                                                    wwht             y             1          1000             0             0             1          1000
a_004f_1_drn_comm_3762_1       1           1
                                                    wwht             y             1          1000             0             0             1          1000
a_004f_1_drn_comm_3763_1       1           1
                                                    wwht             y             1          1000             0             0             1          1000
a_004f_1_drn_comm_3764_1       1           1
                                                    wwht             y             1          1000             0             0             1          1000
a_004f_1_drn_comm_3765_1       1           1
                                                    wwht             y             1          1000             0             0             1          1000
a_004f_1_drn_comm_3766_1       1           1
                                                    wwht             y             1          1000             0             0             1          1000
a_004f_1_drn_comm_3767_1       1           1
                                                    wwht             y             1          1000             0             0             1          1000
a_004f_1_drn_comm_3770_1       1           1
                                                    wwht             y             1          1000             0             0             1          1000
a_004f_1_drn_comm_3777_1       1           1
                                                    wwht             y             1          1000             0             0             1          1000
a_004f_1_drn_comm_3825_1       1           1
                                                    wwht             y             1          1000             0             0             1          1000
a_004f_1_drn_comm_4154_1       1           1
                                                    wwht             y             1          1000             0             0             1          1000
a_004f_1_drn_comm_4155_1       1           1
                                                    wwht             y             1          1000             0             0             1          1000
a_004f_1_drn_comm_4166_1       1           1
                                                    wwht             y             1          1000             0             0             1          1000
a_004f_1_drn_comm_82_1       1           1
                                                    wwht             y             1          1000             0             0             1          1000
a_005f_1_drn_comm_162_1       1           1
                                                    wwht             y             1          1000             0             0             1          1000
a_005f_1_drn_comm_181_1       1           1
                                                    wwht             y             1          1000             0             0             1          1000
a_005f_1_drn_comm_84_1       1           1
                                                    wwht             y             1          1000             0             0             1          1000
a_005f_2_drn_comm_160_1       1           1
                                                    wwht             y             1          1000             0             0             1          1000
a_005f_2_drn_comm_179_1       1           1
                                                    wwht             y             1          1000             0             0             1          1000
a_005f_2_drn_comm_180_1       1           1
                                                    wwht             y             1          1000             0             0             1          1000
a_005f_2_drn_comm_197_1       1           1
                                                    wwht             y             1          1000             0             0             1          1000
a_005f_2_drn_comm_6160_1       1           1
                                                    wwht             y             1          1000             0             0             1          1000
a_005f_2_drn_comm_6161_1       1           1
                                                    wwht             y             1          1000             0             0             1          1000
a_005f_2_drn_comm_6162_1       1           1
                                                    wwht             y             1          1000             0             0             1          1000
a_005f_2_drn_comm_6176_1       1           1
                                                    wwht             y             1          1000             0             0             1          1000
a_005f_2_drn_comm_6177_1       1           1
                                                    wwht             y             1          1000             0             0             1          1000
a_005f_2_drn_comm_6185_1       1           1
                                                    wwht             y             1          1000             0             0             1          1000
a_005f_3_drn_comm_161_1       1           1
                                                    wwht             y             1          1000             0             0             1          1000
a_005f_3_drn_comm_83_1       1           1
                                                    wwht             y             1          1000             0             0             1          1000
a_006f_1_drn_comm_164_1       1           1
                                                    wwht             y             1          1000             0             0             1          1000
a_006f_1_drn_comm_165_1       1           1
                                                    wwht             y             1          1000             0             0             1          1000
a_006f_1_drn_comm_166_1       1           1
                                                    wwht             y             1          1000             0             0             1          1000
a_006f_1_drn_comm_167_1       1           1
                                                    wwht             y             1          1000             0             0             1          1000
a_006f_1_drn_comm_168_1       1           1
                                                    wwht             y             1          1000             0             0             1          1000
a_006f_1_drn_comm_169_1       1           1
                                                    wwht             y             1          1000             0             0             1          1000
a_006f_1_drn_comm_182_1       1           1
                                                    wwht             y             1          1000             0             0             1          1000
a_006f_1_drn_comm_183_1       1           1
                                                    wwht             y             1          1000             0             0             1          1000
a_006f_1_drn_comm_184_1       1           1
                                                    wwht             y             1          1000             0             0             1          1000
a_006f_1_drn_comm_185_1       1           1
                                                    wwht             y             1          1000             0             0             1          1000
a_006f_1_drn_comm_186_1       1           1
                                                    wwht             y             1          1000             0             0             1          1000
a_006f_1_drn_comm_187_1       1           1
                                                    wwht             y             1          1000             0             0             1          1000
a_006f_1_drn_comm_188_1       1           1
                                                    wwht             y             1          1000             0             0             1          1000
a_006f_1_drn_comm_193_1       1           1
                                                    wwht             y             1          1000             0             0             1          1000
a_006f_1_drn_comm_194_1       1           1
                                                    wwht             y             1          1000             0             0             1          1000
a_006f_1_drn_comm_198_1       1           1
                                                    wwht             y             1          1000             0             0             1          1000
a_006f_1_drn_comm_199_1       1           1
                                                    wwht             y             1          1000             0             0             1          1000
a_006f_1_drn_comm_200_1       1           1
                                                    wwht             y             1          1000             0             0             1          1000
a_006f_1_drn_comm_201_1       1           1
                                                    wwht             y             1          1000             0             0             1          1000
a_006f_1_drn_comm_202_1       1           1
                                                    wwht             y             1          1000             0             0             1          1000
a_006f_1_drn_comm_3090_1       1           1
                                                    wwht             y             1          1000             0             0             1          1000
a_006f_1_drn_comm_3115_1       1           1
                                                    wwht             y             1          1000             0             0             1          1000
a_006f_1_drn_comm_85_1       1           1
                                                    wwht             y             1          1000             0             0             1          1000
a_006f_1_drn_comm_86_1       1           1
                                                    wwht             y             1          1000             0             0             1          1000
a_006f_1_drn_comm_87_1       1           1
                                                    wwht             y             1          1000             0             0             1          1000
a_006f_1_drn_comm_88_1       1           1
                                                    wwht             y             1          1000             0             0             1          1000
a_006f_1_drn_comm_89_1       1           1
                                                    wwht             y             1          1000             0             0             1          1000
a_008f_1_drn_comm_2097_1       1           1
                                                    wwht             y             1          1000             0             0             1          1000
a_008f_1_drn_comm_2098_1       1           1
                                                    wwht             y             1          1000             0             0             1          1000
a_008f_1_drn_comm_2099_1       1           1
                                                    wwht             y             1          1000             0             0             1          1000
a_008f_1_drn_comm_2105_1       1           1
                                                    wwht             y             1          1000             0             0             1          1000
a_008f_1_drn_comm_2106_1       1           1
                                                    wwht             y             1          1000             0             0             1          1000
a_008f_1_drn_comm_2107_1       1           1
                                                    wwht             y             1          1000             0             0             1          1000
a_008f_1_drn_comm_2108_1       1           1
                                                    wwht             y             1          1000             0             0             1          1000
a_008f_1_drn_comm_2109_1       1           1
                                                    wwht             y             1          1000             0             0             1          1000
a_008f_1_drn_comm_2110_1       1           1
                                                    wwht             y             1          1000             0             0             1          1000
a_008f_1_drn_comm_2111_1       1           1
                                                    wwht             y             1          1000             0             0             1          1000
a_008f_2_drn_comm_218_1       1           1
                                                    wwht             y             1          1000             0             0             1          1000
a_008f_3_drn_comm_217_1       1           1
                                                    wwht             y             1          1000             0             0             1          1000
a_009f_1_drn_comm_2032_1       1           1
                                                    wwht             y             1          1000             0             0             1          1000
a_009f_1_drn_comm_2033_1       1           1
                                                    wwht             y             1          1000             0             0             1          1000
a_009f_1_drn_comm_2034_1       1           1
                                                    wwht             y             1          1000             0             0             1          1000
a_009f_1_drn_comm_2038_1       1           1
                                                    wwht             y             1          1000             0             0             1          1000
a_009f_1_drn_comm_2039_1       1           1
                                                    wwht             y             1          1000             0             0             1          1000
a_009f_1_drn_comm_2040_1       1           1
                                                    wwht             y             1          1000             0             0             1          1000
a_009f_1_drn_comm_2041_1       1           1
                                                    wwht             y             1          1000             0             0             1          1000
a_009f_1_drn_comm_2042_1       1           1
                                                    wwht             y             1          1000             0             0             1          1000
a_009f_1_drn_comm_220_1       1           1
                                                    wwht             y             1          1000             0             0             1          1000
a_009f_1_drn_comm_221_1       1           1
                                                    wwht             y             1          1000             0             0             1          1000
a_009f_1_drn_comm_234_1       1           1
                                                    wwht             y             1          1000             0             0             1          1000
a_009f_1_drn_comm_235_1       1           1
                                                    wwht             y             1          1000             0             0             1          1000
a_009f_2_drn_comm_219_1       1           1
                                                    wwht             y             1          1000             0             0             1          1000
a_009f_2_drn_comm_885_1       1           1
                                                    wwht             y             1          1000             0             0             1          1000
a_010f_1_drn_comm_244_1       1           1
                                                    wwht             y             1          1000             0             0             1          1000
a_012f_3_drn_comm_254_1       1           1
                                                    fesc             y             1          1000             0             0             1          1000
a_012f_3_drn_comm_256_1       1           1
                                                    fesc             y             1          1000             0             0             1          1000
a_012f_3_drn_comm_262_1       1           1
                                                    fesc             y             1          1000             0             0             1          1000
a_012f_6_drn_comm_3900_1       1           1
                                                    fesc             y             1          1000             0             0             1          1000
a_012f_6_drn_comm_3919_1       1           1
                                                    fesc             y             1          1000             0             0             1          1000
a_014f_1_drn_comm_281_1       1           1
                                                    wwht             y             1          1000             0             0             1          1000
a_014f_2_drn_comm_282_1       1           1
                                                    wwht             y             1          1000             0             0             1          1000
a_015f_1_drn_comm_2548_1       1           1
                                                    wwht             y             1          1000             0             0             1          1000
a_015f_1_drn_comm_2558_1       1           1
                                                    wwht             y             1          1000             0             0             1          1000
a_015f_1_drn_comm_2561_1       1           1
                                                    wwht             y             1          1000             0             0             1          1000
a_015f_1_drn_comm_2562_1       1           1
                                                    wwht             y             1          1000             0             0             1          1000
a_015f_1_drn_comm_2563_1       1           1
                                                    wwht             y             1          1000             0             0             1          1000
a_015f_1_drn_comm_2565_1       1           1
                                                    wwht             y             1          1000             0             0             1          1000
a_015f_1_drn_comm_2729_1       1           1
                                                    wwht             y             1          1000             0             0             1          1000
a_015f_1_drn_comm_294_1       1           1
                                                    wwht             y             1          1000             0             0             1          1000
a_015f_2_drn_comm_2441_1       1           1
                                                    wwht             y             1          1000             0             0             1          1000
a_015f_2_drn_comm_2444_1       1           1
                                                    wwht             y             1          1000             0             0             1          1000
a_015f_2_drn_comm_2445_1       1           1
                                                    wwht             y             1          1000             0             0             1          1000
a_015f_2_drn_comm_2446_1       1           1
                                                    wwht             y             1          1000             0             0             1          1000
a_016f_2_drn_comm_3467_1       3           1
                                                    wwht             y             1          1000             0             0             1          1000
                                                    oats             n             0             0             0             0             0             0
                                                    swht             n             0             0             0             0             0             0
a_016f_2_drn_comm_3528_1       3           1
                                                    wwht             y             1          1000             0             0             1          1000