rout_unit.ele: written by SWAT+ editor v2.1.0 on 2023-05-30 10:39 for SWAT+ rev.60.5.4
      id  name                   obj_typ    obj_id          frac               dlr  
       1  hru0001                    hru         1     1.0000E+0                 0  
       2  hru0002                    hru         2     1.0000E+0                 0  
       3  hru0003                    hru         3     1.0000E+0                 0  
       4  hru0004                    hru         4     1.0000E+0                 0  
       5  hru0005                    hru         5     1.0000E+0                 0  
       6  hru0006                    hru         6     1.0000E+0                 0  
       7  hru0007                    hru         7     1.0000E+0                 0  
       8  hru0008                    hru         8     1.0000E+0                 0  
       9  hru0009                    hru         9     1.0000E+0                 0  
      10  hru0010                    hru        10     1.0000E+0                 0  
      11  hru0011                    hru        11     1.0000E+0                 0  
      12  hru0012                    hru        12     1.0000E+0                 0  
      13  hru0013                    hru        13     1.0000E+0                 0  
      14  hru0014                    hru        14     1.0000E+0                 0  
      15  hru0015                    hru        15     1.0000E+0                 0  
      16  hru0016                    hru        16     1.0000E+0                 0  
      17  hru0017                    hru        17     1.0000E+0                 0  
      18  hru0018                    hru        18     1.0000E+0                 0  
      19  hru0019                    hru        19     1.0000E+0                 0  
      20  hru0020                    hru        20     1.0000E+0                 0  
      21  hru0021                    hru        21     1.0000E+0                 0  
      22  hru0022                    hru        22     1.0000E+0                 0  
      23  hru0023                    hru        23     1.0000E+0                 0  
      24  hru0024                    hru        24     1.0000E+0                 0  
      25  hru0025                    hru        25     1.0000E+0                 0  
      26  hru0026                    hru        26     1.0000E+0                 0  
      27  hru0027                    hru        27     1.0000E+0                 0  
      28  hru0028                    hru        28     1.0000E+0                 0  
      29  hru0029                    hru        29     1.0000E+0                 0  
      30  hru0030                    hru        30     1.0000E+0                 0  
      31  hru0031                    hru        31     1.0000E+0                 0  
      32  hru0032                    hru        32     1.0000E+0                 0  
      33  hru0033                    hru        33     1.0000E+0                 0  
      34  hru0034                    hru        34     1.0000E+0                 0  
      35  hru0035                    hru        35     1.0000E+0                 0  
      36  hru0036                    hru        36     1.0000E+0                 0  
      37  hru0037                    hru        37     1.0000E+0                 0  
      38  hru0038                    hru        38     1.0000E+0                 0  
      39  hru0039                    hru        39     1.0000E+0                 0  
      40  hru0040                    hru        40     1.0000E+0                 0  
      41  hru0041                    hru        41     1.0000E+0                 0  
      42  hru0042                    hru        42     1.0000E+0                 0  
      43  hru0043                    hru        43     1.0000E+0                 0  
      44  hru0044                    hru        44     1.0000E+0                 0  
      45  hru0045                    hru        45     1.0000E+0                 0  
      46  hru0046                    hru        46     1.0000E+0                 0  
      47  hru0047                    hru        47     1.0000E+0                 0  
      48  hru0048                    hru        48     1.0000E+0                 0  
      49  hru0049                    hru        49     1.0000E+0                 0  
      50  hru0050                    hru        50     1.0000E+0                 0  
      51  hru0051                    hru        51     1.0000E+0                 0  
      52  hru0052                    hru        52     1.0000E+0                 0  
      53  hru0053                    hru        53     1.0000E+0                 0  
      54  hru0054                    hru        54     1.0000E+0                 0  
      55  hru0055                    hru        55     1.0000E+0                 0  
      56  hru0056                    hru        56     1.0000E+0                 0  
      57  hru0057                    hru        57     1.0000E+0                 0  
      58  hru0058                    hru        58     1.0000E+0                 0  
      59  hru0059                    hru        59     1.0000E+0                 0  
      60  hru0060                    hru        60     1.0000E+0                 0  
      61  hru0061                    hru        61     1.0000E+0                 0  
      62  hru0062                    hru        62     1.0000E+0                 0  
      63  hru0063                    hru        63     1.0000E+0                 0  
      64  hru0064                    hru        64     1.0000E+0                 0  
      65  hru0065                    hru        65     1.0000E+0                 0  
      66  hru0066                    hru        66     1.0000E+0                 0  
      67  hru0067                    hru        67     1.0000E+0                 0  
      68  hru0068                    hru        68     1.0000E+0                 0  
      69  hru0069                    hru        69     1.0000E+0                 0  
      70  hru0070                    hru        70     1.0000E+0                 0  
      71  hru0071                    hru        71     1.0000E+0                 0  
      72  hru0072                    hru        72     1.0000E+0                 0  
      73  hru0073                    hru        73     1.0000E+0                 0  
      74  hru0074                    hru        74     1.0000E+0                 0  
      75  hru0075                    hru        75     1.0000E+0                 0  
      76  hru0076                    hru        76     1.0000E+0                 0  
      77  hru0077                    hru        77     1.0000E+0                 0  
      78  hru0078                    hru        78     1.0000E+0                 0  
      79  hru0079                    hru        79     1.0000E+0                 0  
      80  hru0080                    hru        80     1.0000E+0                 0  
      81  hru0081                    hru        81     1.0000E+0                 0  
      82  hru0082                    hru        82     1.0000E+0                 0  
      83  hru0083                    hru        83     1.0000E+0                 0  
      84  hru0084                    hru        84     1.0000E+0                 0  
      85  hru0085                    hru        85     1.0000E+0                 0  
      86  hru0086                    hru        86     1.0000E+0                 0  
      87  hru0087                    hru        87     1.0000E+0                 0  
      88  hru0088                    hru        88     1.0000E+0                 0  
      89  hru0089                    hru        89     1.0000E+0                 0  
      90  hru0090                    hru        90     1.0000E+0                 0  
      91  hru0091                    hru        91     1.0000E+0                 0  
      92  hru0092                    hru        92     1.0000E+0                 0  
      93  hru0093                    hru        93     1.0000E+0                 0  
      94  hru0094                    hru        94     1.0000E+0                 0  
      95  hru0095                    hru        95     1.0000E+0                 0  
      96  hru0096                    hru        96     1.0000E+0                 0  
      97  hru0097                    hru        97     1.0000E+0                 0  
      98  hru0098                    hru        98     1.0000E+0                 0  
      99  hru0099                    hru        99     1.0000E+0                 0  
     100  hru0100                    hru       100     1.0000E+0                 0  
     101  hru0101                    hru       101     1.0000E+0                 0  
     102  hru0102                    hru       102     1.0000E+0                 0  
     103  hru0103                    hru       103     1.0000E+0                 0  
     104  hru0104                    hru       104     1.0000E+0                 0  
     105  hru0105                    hru       105     1.0000E+0                 0  
     106  hru0106                    hru       106     1.0000E+0                 0  
     107  hru0107                    hru       107     1.0000E+0                 0  
     108  hru0108                    hru       108     1.0000E+0                 0  
     109  hru0109                    hru       109     1.0000E+0                 0  
     110  hru0110                    hru       110     1.0000E+0                 0  
     111  hru0111                    hru       111     1.0000E+0                 0  
     112  hru0112                    hru       112     1.0000E+0                 0  
     113  hru0113                    hru       113     1.0000E+0                 0  
     114  hru0114                    hru       114     1.0000E+0                 0  
     115  hru0115                    hru       115     1.0000E+0                 0  
     116  hru0116                    hru       116     1.0000E+0                 0  
     117  hru0117                    hru       117     1.0000E+0                 0  
     118  hru0118                    hru       118     1.0000E+0                 0  
     119  hru0119                    hru       119     1.0000E+0                 0  
     120  hru0120                    hru       120     1.0000E+0                 0  
     121  hru0121                    hru       121     1.0000E+0                 0  
     122  hru0122                    hru       122     1.0000E+0                 0  
     123  hru0123                    hru       123     1.0000E+0                 0  
     124  hru0124                    hru       124     1.0000E+0                 0  
     125  hru0125                    hru       125     1.0000E+0                 0  
     126  hru0126                    hru       126     1.0000E+0                 0  
     127  hru0127                    hru       127     1.0000E+0                 0  
     128  hru0128                    hru       128     1.0000E+0                 0  
     129  hru0129                    hru       129     1.0000E+0                 0  
     130  hru0130                    hru       130     1.0000E+0                 0  
     131  hru0131                    hru       131     1.0000E+0                 0  
     132  hru0132                    hru       132     1.0000E+0                 0  
     133  hru0133                    hru       133     1.0000E+0                 0  
     134  hru0134                    hru       134     1.0000E+0                 0  
     135  hru0135                    hru       135     1.0000E+0                 0  
     136  hru0136                    hru       136     1.0000E+0                 0  
     137  hru0137                    hru       137     1.0000E+0                 0  
     138  hru0138                    hru       138     1.0000E+0                 0  
     139  hru0139                    hru       139     1.0000E+0                 0  
     140  hru0140                    hru       140     1.0000E+0                 0  
     141  hru0141                    hru       141     1.0000E+0                 0  
     142  hru0142                    hru       142     1.0000E+0                 0  
     143  hru0143                    hru       143     1.0000E+0                 0  
     144  hru0144                    hru       144     1.0000E+0                 0  
     145  hru0145                    hru       145     1.0000E+0                 0  
     146  hru0146                    hru       146     1.0000E+0                 0  
     147  hru0147                    hru       147     1.0000E+0                 0  
     148  hru0148                    hru       148     1.0000E+0                 0  
     149  hru0149                    hru       149     1.0000E+0                 0  
     150  hru0150                    hru       150     1.0000E+0                 0  
     151  hru0151                    hru       151     1.0000E+0                 0  
     152  hru0152                    hru       152     1.0000E+0                 0  
     153  hru0153                    hru       153     1.0000E+0                 0  
     154  hru0154                    hru       154     1.0000E+0                 0  
     155  hru0155                    hru       155     1.0000E+0                 0  
     156  hru0156                    hru       156     1.0000E+0                 0  
     157  hru0157                    hru       157     1.0000E+0                 0  
     158  hru0158                    hru       158     1.0000E+0                 0  
     159  hru0159                    hru       159     1.0000E+0                 0  
     160  hru0160                    hru       160     1.0000E+0                 0  
     161  hru0161                    hru       161     1.0000E+0                 0  
     162  hru0162                    hru       162     1.0000E+0                 0  
     163  hru0163                    hru       163     1.0000E+0                 0  
     164  hru0164                    hru       164     1.0000E+0                 0  
     165  hru0165                    hru       165     1.0000E+0                 0  
     166  hru0166                    hru       166     1.0000E+0                 0  
     167  hru0167                    hru       167     1.0000E+0                 0  
     168  hru0168                    hru       168     1.0000E+0                 0  
     169  hru0169                    hru       169     1.0000E+0                 0  
     170  hru0170                    hru       170     1.0000E+0                 0  
     171  hru0171                    hru       171     1.0000E+0                 0  
     172  hru0172                    hru       172     1.0000E+0                 0  
     173  hru0173                    hru       173     1.0000E+0                 0  
     174  hru0174                    hru       174     1.0000E+0                 0  
     175  hru0175                    hru       175     1.0000E+0                 0  
     176  hru0176                    hru       176     1.0000E+0                 0  
     177  hru0177                    hru       177     1.0000E+0                 0  
     178  hru0178                    hru       178     1.0000E+0                 0  
     179  hru0179                    hru       179     1.0000E+0                 0  
     180  hru0180                    hru       180     1.0000E+0                 0  
     181  hru0181                    hru       181     1.0000E+0                 0  
     182  hru0182                    hru       182     1.0000E+0                 0  
     183  hru0183                    hru       183     1.0000E+0                 0  
     184  hru0184                    hru       184     1.0000E+0                 0  
     185  hru0185                    hru       185     1.0000E+0                 0  
     186  hru0186                    hru       186     1.0000E+0                 0  
     187  hru0187                    hru       187     1.0000E+0                 0  
     188  hru0188                    hru       188     1.0000E+0                 0  
     189  hru0189                    hru       189     1.0000E+0                 0  
     190  hru0190                    hru       190     1.0000E+0                 0  
     191  hru0191                    hru       191     1.0000E+0                 0  
     192  hru0192                    hru       192     1.0000E+0                 0  
     193  hru0193                    hru       193     1.0000E+0                 0  
     194  hru0194                    hru       194     1.0000E+0                 0  
     195  hru0195                    hru       195     1.0000E+0                 0  
     196  hru0196                    hru       196     1.0000E+0                 0  
     197  hru0197                    hru       197     1.0000E+0                 0  
     198  hru0198                    hru       198     1.0000E+0                 0  
     199  hru0199                    hru       199     1.0000E+0                 0  
     200  hru0200                    hru       200     1.0000E+0                 0  
     201  hru0201                    hru       201     1.0000E+0                 0  
     202  hru0202                    hru       202     1.0000E+0                 0  
     203  hru0203                    hru       203     1.0000E+0                 0  
     204  hru0204                    hru       204     1.0000E+0                 0  
     205  hru0205                    hru       205     1.0000E+0                 0  
     206  hru0206                    hru       206     1.0000E+0                 0  
     207  hru0207                    hru       207     1.0000E+0                 0  
     208  hru0208                    hru       208     1.0000E+0                 0  
     209  hru0209                    hru       209     1.0000E+0                 0  
     210  hru0210                    hru       210     1.0000E+0                 0  
     211  hru0211                    hru       211     1.0000E+0                 0  
     212  hru0212                    hru       212     1.0000E+0                 0  
     213  hru0213                    hru       213     1.0000E+0                 0  
     214  hru0214                    hru       214     1.0000E+0                 0  
     215  hru0215                    hru       215     1.0000E+0                 0  
     216  hru0216                    hru       216     1.0000E+0                 0  
     217  hru0217                    hru       217     1.0000E+0                 0  
     218  hru0218                    hru       218     1.0000E+0                 0  
     219  hru0219                    hru       219     1.0000E+0                 0  
     220  hru0220                    hru       220     1.0000E+0                 0  
     221  hru0221                    hru       221     1.0000E+0                 0  
     222  hru0222                    hru       222     1.0000E+0                 0  
     223  hru0223                    hru       223     1.0000E+0                 0  
     224  hru0224                    hru       224     1.0000E+0                 0  
     225  hru0225                    hru       225     1.0000E+0                 0  
     226  hru0226                    hru       226     1.0000E+0                 0  
     227  hru0227                    hru       227     1.0000E+0                 0  
     228  hru0228                    hru       228     1.0000E+0                 0  
     229  hru0229                    hru       229     1.0000E+0                 0  
     230  hru0230                    hru       230     1.0000E+0                 0  
     231  hru0231                    hru       231     1.0000E+0                 0  
     232  hru0232                    hru       232     1.0000E+0                 0  
     233  hru0233                    hru       233     1.0000E+0                 0  
     234  hru0234                    hru       234     1.0000E+0                 0  
     235  hru0235                    hru       235     1.0000E+0                 0  
     236  hru0236                    hru       236     1.0000E+0                 0  
     237  hru0237                    hru       237     1.0000E+0                 0  
     238  hru0238                    hru       238     1.0000E+0                 0  
     239  hru0239                    hru       239     1.0000E+0                 0  
     240  hru0240                    hru       240     1.0000E+0                 0  
     241  hru0241                    hru       241     1.0000E+0                 0  
     242  hru0242                    hru       242     1.0000E+0                 0  
     243  hru0243                    hru       243     1.0000E+0                 0  
     244  hru0244                    hru       244     1.0000E+0                 0  
     245  hru0245                    hru       245     1.0000E+0                 0  
     246  hru0246                    hru       246     1.0000E+0                 0  
     247  hru0247                    hru       247     1.0000E+0                 0  
     248  hru0248                    hru       248     1.0000E+0                 0  
     249  hru0249                    hru       249     1.0000E+0                 0  
     250  hru0250                    hru       250     1.0000E+0                 0  
     251  hru0251                    hru       251     1.0000E+0                 0  
     252  hru0252                    hru       252     1.0000E+0                 0  
     253  hru0253                    hru       253     1.0000E+0                 0  
     254  hru0254                    hru       254     1.0000E+0                 0  
     255  hru0255                    hru       255     1.0000E+0                 0  
     256  hru0256                    hru       256     1.0000E+0                 0  
     257  hru0257                    hru       257     1.0000E+0                 0  
     258  hru0258                    hru       258     1.0000E+0                 0  
     259  hru0259                    hru       259     1.0000E+0                 0  
     260  hru0260                    hru       260     1.0000E+0                 0  
     261  hru0261                    hru       261     1.0000E+0                 0  
     262  hru0262                    hru       262     1.0000E+0                 0  
     263  hru0263                    hru       263     1.0000E+0                 0  
     264  hru0264                    hru       264     1.0000E+0                 0  
     265  hru0265                    hru       265     1.0000E+0                 0  
     266  hru0266                    hru       266     1.0000E+0                 0  
     267  hru0267                    hru       267     1.0000E+0                 0  
     268  hru0268                    hru       268     1.0000E+0                 0  
     269  hru0269                    hru       269     1.0000E+0                 0  
     270  hru0270                    hru       270     1.0000E+0                 0  
     271  hru0271                    hru       271     1.0000E+0                 0  
     272  hru0272                    hru       272     1.0000E+0                 0  
     273  hru0273                    hru       273     1.0000E+0                 0  
     274  hru0274                    hru       274     1.0000E+0                 0  
     275  hru0275                    hru       275     1.0000E+0                 0  
     276  hru0276                    hru       276     1.0000E+0                 0  
     277  hru0277                    hru       277     1.0000E+0                 0  
     278  hru0278                    hru       278     1.0000E+0                 0  
     279  hru0279                    hru       279     1.0000E+0                 0  
     280  hru0280                    hru       280     1.0000E+0                 0  
     281  hru0281                    hru       281     1.0000E+0                 0  
     282  hru0282                    hru       282     1.0000E+0                 0  
     283  hru0283                    hru       283     1.0000E+0                 0  
     284  hru0284                    hru       284     1.0000E+0                 0  
     285  hru0285                    hru       285     1.0000E+0                 0  
     286  hru0286                    hru       286     1.0000E+0                 0  
     287  hru0287                    hru       287     1.0000E+0                 0  
     288  hru0288                    hru       288     1.0000E+0                 0  
     289  hru0289                    hru       289     1.0000E+0                 0  
     290  hru0290                    hru       290     1.0000E+0                 0  
     291  hru0291                    hru       291     1.0000E+0                 0  
     292  hru0292                    hru       292     1.0000E+0                 0  
     293  hru0293                    hru       293     1.0000E+0                 0  
     294  hru0294                    hru       294     1.0000E+0                 0  
     295  hru0295                    hru       295     1.0000E+0                 0  
     296  hru0296                    hru       296     1.0000E+0                 0  
     297  hru0297                    hru       297     1.0000E+0                 0  
     298  hru0298                    hru       298     1.0000E+0                 0  
     299  hru0299                    hru       299     1.0000E+0                 0  
     300  hru0300                    hru       300     1.0000E+0                 0  
     301  hru0301                    hru       301     1.0000E+0                 0  
     302  hru0302                    hru       302     1.0000E+0                 0  
     303  hru0303                    hru       303     1.0000E+0                 0  
     304  hru0304                    hru       304     1.0000E+0                 0  
     305  hru0305                    hru       305     1.0000E+0                 0  
     306  hru0306                    hru       306     1.0000E+0                 0  
     307  hru0307                    hru       307     1.0000E+0                 0  
     308  hru0308                    hru       308     1.0000E+0                 0  
     309  hru0309                    hru       309     1.0000E+0                 0  
     310  hru0310                    hru       310     1.0000E+0                 0  
     311  hru0311                    hru       311     1.0000E+0                 0  
     312  hru0312                    hru       312     1.0000E+0                 0  
     313  hru0313                    hru       313     1.0000E+0                 0  
     314  hru0314                    hru       314     1.0000E+0                 0  
     315  hru0315                    hru       315     1.0000E+0                 0  
     316  hru0316                    hru       316     1.0000E+0                 0  
     317  hru0317                    hru       317     1.0000E+0                 0  
     318  hru0318                    hru       318     1.0000E+0                 0  
     319  hru0319                    hru       319     1.0000E+0                 0  
     320  hru0320                    hru       320     1.0000E+0                 0  
     321  hru0321                    hru       321     1.0000E+0                 0  
     322  hru0322                    hru       322     1.0000E+0                 0  
     323  hru0323                    hru       323     1.0000E+0                 0  
     324  hru0324                    hru       324     1.0000E+0                 0  
     325  hru0325                    hru       325     1.0000E+0                 0  
     326  hru0326                    hru       326     1.0000E+0                 0  
     327  hru0327                    hru       327     1.0000E+0                 0  
     328  hru0328                    hru       328     1.0000E+0                 0  
     329  hru0329                    hru       329     1.0000E+0                 0  
     330  hru0330                    hru       330     1.0000E+0                 0  
     331  hru0331                    hru       331     1.0000E+0                 0  
     332  hru0332                    hru       332     1.0000E+0                 0  
     333  hru0333                    hru       333     1.0000E+0                 0  
     334  hru0334                    hru       334     1.0000E+0                 0  
     335  hru0335                    hru       335     1.0000E+0                 0  
     336  hru0336                    hru       336     1.0000E+0                 0  
     337  hru0337                    hru       337     1.0000E+0                 0  
     338  hru0338                    hru       338     1.0000E+0                 0  
     339  hru0339                    hru       339     1.0000E+0                 0  
     340  hru0340                    hru       340     1.0000E+0                 0  
     341  hru0341                    hru       341     1.0000E+0                 0  
     342  hru0342                    hru       342     1.0000E+0                 0  
     343  hru0343                    hru       343     1.0000E+0                 0  
     344  hru0344                    hru       344     1.0000E+0                 0  
     345  hru0345                    hru       345     1.0000E+0                 0  
     346  hru0346                    hru       346     1.0000E+0                 0  
     347  hru0347                    hru       347     1.0000E+0                 0  
     348  hru0348                    hru       348     1.0000E+0                 0  
     349  hru0349                    hru       349     1.0000E+0                 0  
     350  hru0350                    hru       350     1.0000E+0                 0  