soils.sol: written by SWAT+ editor v2.1.0 on 2023-05-30 10:39 for SWAT+ rev.60.5.4
name                            nly           hyd_grp        dp_tot    anion_excl      perc_crk  texture                              dp            bd           awc        soil_k        carbon          clay          silt          sand          rock           alb        usle_k            ec         caco3            ph  
ARdy                              4                 C    1000.00000       0.50000       0.50000  loamy_sand                 
                                                                                                                               250.00000       1.22000       0.25000      35.00000       3.10000       4.00000      16.40000      79.60000      12.00000       0.20000       0.10000       0.00000       0.00000       0.00000  
                                                                                                                               550.00000       1.62000       0.20000      27.50000       0.30000       4.00000       3.80000      92.20000      12.00000       0.20000       0.10000       0.00000       0.00000       0.00000  
                                                                                                                               800.00000       1.68000       0.20000      21.30000       0.20000       1.00000       4.20000      94.80000      11.00000       0.20000       0.10000       0.00000       0.00000       0.00000  
                                                                                                                              1000.00000       1.75000       0.21000      11.90000       0.10000       2.00000       5.80000      92.20000      11.00000       0.20000       0.10000       0.00000       0.00000       0.00000  
Mountain                          2                 D     500.00000       0.50000       0.05000  sandy_loam                 
                                                                                                                                50.00000       1.10000       0.26000       5.00000       6.00000       5.00000      22.40000      72.60000      12.00000       0.20000       0.20000       0.00000       0.00000       0.00000  
                                                                                                                               100.00000       0.70000       0.05000       0.00000       0.10000      80.00000      15.00000       5.00000      99.00000       0.20000       0.10000       0.00000       0.00000       0.00000  
CMdy                              4                 C    1000.00000       0.50000       0.50000  sandy_loam                 
                                                                                                                               250.00000       1.27000       0.22000      18.20000       2.70000       7.00000      34.50000      58.50000      12.00000       0.20000       0.20000       0.00000       0.00000       0.00000  
                                                                                                                               450.00000       1.52000       0.19000      15.30000       1.00000       7.00000      34.50000      58.50000      13.00000       0.20000       0.30000       0.00000       0.00000       0.00000  
                                                                                                                               650.00000       1.64000       0.18000      12.70000       0.40000       7.00000      34.50000      58.50000      13.00000       0.20000       0.30000       0.00000       0.00000       0.00000  
                                                                                                                              1000.00000       1.72000       0.00000       9.70000       0.30000       7.00000      34.50000      58.50000      12.00000       0.20000       0.30000       0.00000       0.00000       0.00000  
CMdy-ap                           3                 C    1000.00000       0.50000       0.50000  sandy_loam                 
                                                                                                                               250.00000       1.37000       0.19000      27.80000       2.50000      12.00000      21.40000      66.60000      12.00000       0.20000       0.20000       0.00000       0.00000       0.00000  
                                                                                                                               550.00000       1.60000       0.18000      14.90000       0.40000       6.00000      32.60000      61.40000      12.00000       0.20000       0.30000       0.00000       0.00000       0.00000  
                                                                                                                              1000.00000       1.82000       0.13000       3.70000       0.10000      20.00000      67.20000      12.80000      12.00000       0.20000       0.40000       0.00000       0.00000       0.00000  
CMeu-sl                           3                 D    1000.00000       0.50000       0.50000  silty_clay_loam            
                                                                                                                               250.00000       1.49000       0.17000       5.40000       2.70000      30.00000      59.50000      10.50000      10.00000       0.20000       0.30000       0.00000       0.00000       0.00000  
                                                                                                                               650.00000       1.79000       0.10000       4.10000       0.30000      30.00000      59.50000      10.50000      11.00000       0.20000       0.40000       0.00000       0.00000       0.00000  
                                                                                                                              1000.00000       1.91000       0.07000       2.20000       0.10000      30.00000      59.50000      10.50000      10.00000       0.20000       0.40000       0.00000       0.00000       0.00000  
CMfv                              3                 C    1000.00000       0.50000       0.50000  sandy_loam                 
                                                                                                                               250.00000       1.32000       0.21000      16.00000       2.20000       7.00000      38.00000      55.00000      10.00000       0.20000       0.20000       0.00000       0.00000       0.00000  
                                                                                                                               550.00000       1.59000       0.19000      15.40000       0.40000       5.00000      30.50000      64.50000      10.00000       0.20000       0.30000       0.00000       0.00000       0.00000  
                                                                                                                              1000.00000       1.74000       0.15000       7.10000       0.10000       9.00000      42.60000      48.40000       9.00000       0.20000       0.30000       0.00000       0.00000       0.00000  
CMfv-ap                           3                 C    1000.00000       0.50000       0.50000  sandy_loam                 
                                                                                                                               250.00000       1.25000       0.22000      16.80000       3.00000       9.00000      36.90000      54.10000      10.00000       0.20000       0.20000       0.00000       0.00000       0.00000  
                                                                                                                               550.00000       1.59000       0.18000      15.30000       0.40000       5.00000      40.40000      54.60000      10.00000       0.20000       0.30000       0.00000       0.00000       0.00000  
                                                                                                                              1000.00000       1.82000       0.13000       3.70000       0.10000      20.00000      66.30000      13.70000       9.00000       0.20000       0.40000       0.00000       0.00000       0.00000  
Antropogenic                      2                 D     500.00000       0.50000       0.50000  sandy_loam                 
                                                                                                                                50.00000       1.10000       0.26000       5.00000       6.00000       5.00000      22.40000      72.60000      12.00000       0.20000       0.20000       0.00000       0.00000       0.00000  
                                                                                                                               100.00000       0.70000       0.05000       0.00000       0.10000      80.00000      15.00000       5.00000      99.00000       0.20000       0.10000       0.00000       0.00000       0.00000  
GLch-ce                           2                 D    1000.00000       0.50000       0.50000  clay_loam                  
                                                                                                                               250.00000       1.31000       0.21000      12.10000       5.10000      32.00000      40.00000      28.00000      10.00000       0.20000       0.20000       0.00000       0.00000       0.00000  
                                                                                                                              1000.00000       2.02000       0.05000       0.50000       0.50000      58.00000      36.20000       5.80000      11.00000       0.20000       0.40000       0.00000       0.00000       0.00000  
GLch-hu-sl                        3                 D    1000.00000       0.50000       0.50000  silty_clay_loam            
                                                                                                                               250.00000       1.36000       0.20000       6.60000       4.00000      31.00000      57.20000      11.80000       9.00000       0.20000       0.30000       0.00000       0.00000       0.00000  
                                                                                                                               550.00000       1.31000       0.21000      14.40000       2.50000       5.00000      53.60000      41.40000       9.00000       0.20000       0.30000       0.00000       0.00000       0.00000  
                                                                                                                              1000.00000       1.66000       0.18000      10.70000       0.50000       5.00000      53.60000      41.40000       8.00000       0.20000       0.40000       0.00000       0.00000       0.00000  
GLch-sl                           3                 C    1000.00000       0.50000       0.50000  loam                       
                                                                                                                               250.00000       1.07000       0.27000      10.30000       8.00000      22.00000      42.40000      35.60000      11.00000       0.20000       0.20000       0.00000       0.00000       0.00000  
                                                                                                                               550.00000       1.73000       0.11000       4.80000       0.60000      29.00000      58.40000      12.60000      11.00000       0.20000       0.40000       0.00000       0.00000       0.00000  
                                                                                                                              1000.00000       1.88000       0.18000       3.00000       0.20000      29.00000      58.40000      12.60000      10.00000       0.20000       0.40000       0.00000       0.00000       0.00000  
GLfv                              3                 C    1000.00000       0.50000       0.50000  silt_loam                  
                                                                                                                               250.00000       1.39000       0.17000       5.10000       2.00000      15.00000      66.20000      18.80000      10.00000       0.20000       0.30000       0.00000       0.00000       0.00000  
                                                                                                                               550.00000       1.60000       0.18000      14.40000       0.20000       4.00000      40.00000      56.00000      11.00000       0.20000       0.30000       0.00000       0.00000       0.00000  
                                                                                                                              1000.00000       1.70000       0.15000      10.50000       0.20000       4.00000      40.00000      56.00000      10.00000       0.20000       0.30000       0.00000       0.00000       0.00000  
GLhi-eu-sl                        2                 D    1000.00000       0.50000       0.50000  silt_loam                  
                                                                                                                               250.00000       0.33000       0.27000      33.30000      25.00000      52.90000      30.00000      17.10000      10.00000       0.20000       0.10000       0.00000       0.00000       0.00000  
                                                                                                                              1000.00000       1.87000       0.10000       2.50000       0.30000      35.00000      58.90000       6.10000      10.00000       0.20000       0.40000       0.00000       0.00000       0.00000  
GLum-fv-hu-sl                     3                 C    1000.00000       0.50000       0.50000  silt_loam                  
                                                                                                                               250.00000       1.28000       0.19000       8.10000       3.90000      23.00000      55.90000      21.10000       9.00000       0.20000       0.30000       0.00000       0.00000       0.00000  
                                                                                                                               550.00000       1.47000       0.18000      12.40000       1.60000      10.00000      51.20000      38.80000      10.00000       0.20000       0.30000       0.00000       0.00000       0.00000  
                                                                                                                              1000.00000       1.70000       0.19000       9.00000       0.60000      11.00000      40.60000      48.40000       9.00000       0.20000       0.30000       0.00000       0.00000       0.00000  
Sea_dep_thin                      1                 D     150.00000       0.50000       0.25000  sandy_loam                 
                                                                                                                               150.00000       1.45000       0.25000      33.00000       2.10000       5.00000      22.40000      72.60000       8.00000       0.20000       0.20000       0.00000       0.00000       0.00000  
Sea_dep_thick                     2                 C     800.00000       0.50000       0.25000  sandy_loam                 
                                                                                                                               150.00000       1.45000       0.25000      33.00000       2.10000       5.00000      22.40000      72.60000       8.00000       0.20000       0.20000       0.00000       0.00000       0.00000  
                                                                                                                               800.00000       1.50000       0.20000      25.00000       2.10000       5.00000      22.40000      72.60000       8.00000       0.20000       0.20000       0.00000       0.00000       0.00000  
HSfi-dy                           2                 D    1000.00000       0.50000       0.50000  silty-clay-loam            
                                                                                                                               250.00000       0.17000       0.30000      33.30000      40.00000      52.90000      30.00000      17.10000      10.00000       0.20000       0.10000       0.00000       0.00000       0.00000  
                                                                                                                              1000.00000       0.17000       0.30000      33.30000      40.00000      52.90000      30.00000      17.10000      10.00000       0.20000       0.10000       0.00000       0.00000       0.00000  
HShm-dy                           2                 D    1000.00000       0.50000       0.50000  silty-clay-loam            
                                                                                                                               250.00000       0.17000       0.30000      33.30000      40.00000      52.90000      30.00000      17.10000      10.00000       0.20000       0.10000       0.00000       0.00000       0.00000  
                                                                                                                              1000.00000       0.17000       0.30000      33.30000      40.00000      52.90000      30.00000      17.10000      10.00000       0.20000       0.10000       0.00000       0.00000       0.00000  
HSsa-dy                           2                 D    1000.00000       0.50000       0.50000  silty-clay-loam            
                                                                                                                               250.00000       0.17000       0.30000      33.30000      40.00000      52.90000      30.00000      17.10000      10.00000       0.20000       0.10000       0.00000       0.00000       0.00000  
                                                                                                                              1000.00000       0.17000       0.30000      33.30000      40.00000      52.90000      30.00000      17.10000      10.00000       0.20000       0.10000       0.00000       0.00000       0.00000  
HSsa-dy-nv                        2                 C    1000.00000       0.50000       0.50000  silt_loam                  
                                                                                                                               250.00000       1.29000       0.19000       5.70000       3.00000      16.00000      63.80000      20.20000      10.00000       0.20000       0.30000       0.00000       0.00000       0.00000  
                                                                                                                              1000.00000       0.17000       0.30000      33.30000      40.00000      52.90000      30.00000      17.10000      10.00000       0.20000       0.10000       0.00000       0.00000       0.00000  
HSsa-dy-rp                        3                 D    1000.00000       0.50000       0.50000  silty-clay-loam            
                                                                                                                               250.00000       0.17000       0.30000      33.30000      40.00000      52.90000      30.00000      17.10000      11.00000       0.20000       0.10000       0.00000       0.00000       0.00000  
                                                                                                                               700.00000       0.17000       0.30000      33.30000      40.00000      52.90000      30.00000      17.10000      11.00000       0.20000       0.10000       0.00000       0.00000       0.00000  
                                                                                                                              1000.00000       1.37000       0.18000      11.20000       3.00000       2.00000      33.20000      64.80000      10.00000       0.20000       0.20000       0.00000       0.00000       0.00000  
HSsa-dy-rp-rc                     3                 D    1000.00000       0.50000       0.50000  silty-clay-loam            
                                                                                                                               250.00000       0.17000       0.30000      33.30000      40.00000      52.90000      30.00000      17.10000      11.00000       0.20000       0.10000       0.00000       0.00000       0.00000  
                                                                                                                               700.00000       0.17000       0.30000      33.30000      40.00000      52.90000      30.00000      17.10000      11.00000       0.20000       0.10000       0.00000       0.00000       0.00000  
                                                                                                                              1000.00000       1.37000       0.20000      11.20000       3.00000       2.00000      33.20000      64.80000      10.00000       0.20000       0.20000       0.00000       0.00000       0.00000  
Humic                             1                 D     250.00000       0.50000       0.50000  silt_loam                  
                                                                                                                               250.00000       0.33000       0.35000      40.00000      25.00000      52.90000      30.00000      17.10000      13.00000       0.20000       0.10000       0.00000       0.00000       0.00000  
LPhk                              2                 B    1000.00000       0.50000       0.50000  sandy_loam                 
                                                                                                                               250.00000       1.35000       0.22000      29.30000       2.00000       5.00000      20.60000      74.40000      12.00000       0.20000       0.20000       0.00000       0.00000       0.00000  
                                                                                                                              1000.00000       1.68000       0.19000      16.80000       0.10000       1.00000       4.90000      94.10000      12.00000       0.20000       0.10000       0.00000       0.00000       0.00000  
LVcm-sl                           4                 C    1000.00000       0.50000       0.50000  silt_loam                  
                                                                                                                               250.00000       1.37000       0.18000       3.40000       2.20000      16.00000      74.40000       9.60000      10.00000       0.20000       0.30000       0.00000       0.00000       0.00000  
                                                                                                                               550.00000       1.61000       0.15000       7.90000       0.70000      15.00000      75.20000       9.80000      10.00000       0.20000       0.40000       0.00000       0.00000       0.00000  
                                                                                                                               700.00000       1.74000       0.21000       5.90000       0.30000      18.00000      69.10000      12.90000      10.00000       0.20000       0.40000       0.00000       0.00000       0.00000  
                                                                                                                              1000.00000       1.82000       0.00000       3.70000       0.10000      18.00000      69.10000      12.90000      10.00000       0.20000       0.40000       0.00000       0.00000       0.00000  
LVlen-sl                          3                 D     700.00000       0.50000       0.50000  silt_loam                  
                                                                                                                               250.00000       1.37000       0.18000       3.40000       2.20000      16.00000      74.40000       9.60000      11.00000       0.20000       0.30000       0.00000       0.00000       0.00000  
                                                                                                                               400.00000       1.59000       0.15000       8.40000       0.70000      15.00000      75.20000       9.80000      11.00000       0.20000       0.40000       0.00000       0.00000       0.00000  
                                                                                                                               700.00000       1.72000       0.12000       6.30000       0.30000      18.00000      69.10000      12.90000      11.00000       0.20000       0.40000       0.00000       0.00000       0.00000  
Beach_dep                         2                 C     800.00000       0.50000       0.25000  sandy_loam                 
                                                                                                                               150.00000       1.45000       0.25000      33.00000       2.10000       5.00000      22.40000      72.60000       8.00000       0.20000       0.20000       0.00000       0.00000       0.00000  
                                                                                                                               800.00000       1.50000       0.20000      25.00000       2.10000       5.00000      22.40000      72.60000       8.00000       0.20000       0.20000       0.00000       0.00000       0.00000  
PHha-ph-sl                        3                 D    1000.00000       0.50000       0.50000  silty_clay_loam            
                                                                                                                               250.00000       1.45000       0.18000       7.20000       3.20000      30.00000      52.90000      17.10000      10.00000       0.20000       0.30000       0.00000       0.00000       0.00000  
                                                                                                                               700.00000       1.54000       0.17000       4.80000       3.20000      30.00000      52.90000      17.10000      11.00000       0.20000       0.30000       0.00000       0.00000       0.00000  
                                                                                                                              1000.00000       1.71000       0.19000      10.60000       0.30000       4.00000      31.00000      65.00000      11.00000       0.20000       0.30000       0.00000       0.00000       0.00000  
PLdy                              3                 C    1000.00000       0.50000       0.50000  sandy_loam                 
                                                                                                                               250.00000       1.25000       0.23000      27.20000       3.00000       7.00000      22.80000      70.20000      11.00000       0.20000       0.20000       0.00000       0.00000       0.00000  
                                                                                                                               550.00000       1.59000       0.18000      14.80000       0.40000       6.00000      39.00000      55.00000      11.00000       0.20000       0.30000       0.00000       0.00000       0.00000  
                                                                                                                              1000.00000       1.87000       0.17000       3.30000       0.20000      28.00000      53.30000      18.70000      10.00000       0.20000       0.40000       0.00000       0.00000       0.00000  
PLfv                              3                 C    1000.00000       0.50000       0.50000  sandy_loam                 
                                                                                                                               250.00000       1.31000       0.21000      30.20000       3.00000      11.00000      19.70000      69.30000      10.00000       0.20000       0.20000       0.00000       0.00000       0.00000  
                                                                                                                               550.00000       1.60000       0.20000      17.60000       0.30000       2.00000      15.30000      82.70000      10.00000       0.20000       0.20000       0.00000       0.00000       0.00000  
                                                                                                                              1000.00000       1.87000       0.08000       3.30000       0.20000      28.00000      53.30000      18.70000      10.00000       0.20000       0.40000       0.00000       0.00000       0.00000  
PLum                              3                 C    1000.00000       0.50000       0.50000  sandy_loam                 
                                                                                                                               250.00000       1.05000       0.27000      29.40000       5.00000       7.00000      22.80000      70.20000      12.00000       0.20000       0.20000       0.00000       0.00000       0.00000  
                                                                                                                               550.00000       1.58000       0.20000      17.90000       0.50000       3.00000      14.40000      82.60000      12.00000       0.20000       0.20000       0.00000       0.00000       0.00000  