time.sim: written by SWAT+ editor v2.1.0 on 2023-05-30 10:38 for SWAT+ rev.60.5.4 and edited with SWATfarmR 2.0.5 on 2023-05-30 14:35:38.090333
day_start  yrc_start   day_end   yrc_end      step  
        0       2016         0      2019         0
