weather-wgn.cli: written by SWAT+ editor v2.1.0 on 2023-05-30 10:38 for SWAT+ rev.60.5.4
WS_AAS                         59.66000      10.78000      94.00000        13  
 tmp_max_ave   tmp_min_ave    tmp_max_sd    tmp_min_sd       pcp_ave        pcp_sd      pcp_skew       wet_dry       wet_wet      pcp_days       pcp_hhr       slr_ave       dew_ave       wnd_ave  
    -0.42754      -6.35285       4.83636       6.04457       2.14665       4.31987       3.41898       0.40237       0.70940      18.00000      12.46131       1.27841       0.83700       1.58710  
     1.03706      -5.50954       4.58141       5.96666       1.22916       2.89790       3.67220       0.31132       0.57419      11.92308       8.28221       3.39101       0.81223       1.83188  
     6.00496      -3.02854       4.47966       4.85955       1.13995       3.19876       4.19560       0.27907       0.49655      11.15385       9.64991       8.40794       0.72716       1.84342  
    11.28333       0.29462       4.27485       3.64982       2.05718       4.53635       3.32599       0.37000       0.60526      14.61538      12.87921      14.35205       0.65084       1.99128  
    16.13325       5.54094       4.76474       4.15435       2.60943       6.11381       3.94570       0.46277       0.59070      16.53846      20.32560      17.84392       0.68519       2.02605  
    20.13718      10.09205       3.46916       2.86336       2.56462       6.29217       5.93083       0.41954       0.65741      16.61538      29.02572      20.42051       0.70470       1.93256  
    22.23449      12.00844       3.48304       2.99444       2.74392       5.90800       3.55432       0.48750       0.67490      18.69231      19.07188      19.22333       0.72100       1.80248  
    20.53598      10.85955       2.60997       3.21595       3.44169       7.26861       2.96783       0.38144       0.64115      16.07692      16.37446      14.59231       0.77442       1.72878  
    16.45821       7.66615       3.06482       3.81943       3.85590       7.40014       2.86302       0.40476       0.69369      17.07692      22.03523       9.16000       0.79842       1.76949  
    10.41166       3.31315       3.33856       4.60381       3.18784       5.80510       2.48327       0.46875       0.68724      18.69231      14.36089       4.08412       0.82592       1.83499  
     4.94897      -0.26949       4.52560       4.80021       2.41077       4.79074       3.35057       0.43038       0.70690      17.84615      12.49930       1.41051       0.86945       1.80744  
     0.86973      -5.03548       5.15636       6.13324       2.20149       4.01409       2.50459       0.38150       0.71304      17.69231       9.11803       0.80819       0.86752       1.58164  
