weather-sta.cli: written by SWAT+ editor v2.1.0 on 2023-05-30 10:38 for SWAT+ rev.60.5.4
name                           wgn                        pcp                        tmp                        slr                        hmd                        wnd           wnd_dir          atmo_dep  
s59661n10782e               WS_AAS                sta_id1.pcp                sta_id1.tmp                sta_id1.slr                sta_id1.hmd                sta_id1.wnd              null       atmodep.cli  
