chandeg.con: written by SWAT+ editor v2.1.0 on 2023-05-25 15:02 for SWAT+ rev.60.5.4
      id  name                gis_id          area           lat           lon          elev      lcha               wst       cst      ovfl      rule   out_tot       obj_typ    obj_id       hyd_typ          frac  
       1  cha001                   0      28.51310      59.70042      10.87332     102.35537         1     s59661n10782e         0         0         0         1           sdc       189           tot       1.00000  
       2  cha002                   0      13.84580      59.70790      10.88713     114.90304         2     s59661n10782e         0         0         0         1           sdc       127           tot       1.00000  
       3  cha003                   0      22.06030      59.69446      10.93476     140.79300         3     s59661n10782e         0         0         0         1           sdc        48           tot       1.00000  
       4  cha004                   0     549.15470      59.61119      10.88730      62.60953         4     s59661n10782e         0         0         0         1           sdc        39           tot       1.00000  
       5  cha005                   0     545.14250      59.61193      10.88583      62.00297         5     s59661n10782e         0         0         0         1           sdc       128           tot       1.00000  
       6  cha006                   0     541.62100      59.61329      10.88465      62.91476         6     s59661n10782e         0         0         0         1           sdc         5           tot       1.00000  
       7  cha007                   0      15.52970      59.63129      10.89984      98.41616         7     s59661n10782e         0         0         0         1           sdc       405           tot       1.00000  
       8  cha008                   0     490.35872      59.61891      10.87992      64.84127         8     s59661n10782e         0         0         0         1           sdc       395           tot       1.00000  
       9  cha009                   0      17.57070      59.68756      10.88036      94.81846         9     s59661n10782e         0         0         0         1           sdc       131           tot       1.00000  
      10  cha010                   0     428.54550      59.64811      10.88574      84.82091        10     s59661n10782e         0         0         0         1           sdc       342           tot       1.00000  
      11  cha011                   0       0.18190      59.61316      10.88257      65.17000        11     s59661n10782e         0         0         0         1           sdc        22           tot       1.00000  
      12  cha012                   0      49.26030      59.69909      10.91205     111.26738        12     s59661n10782e         0         0         0         1           sdc       186           tot       1.00000  
      13  cha013                   0      17.54240      59.68433      10.87629      94.89067        13     s59661n10782e         0         0         0         1           sdc         9           tot       1.00000  
      14  cha014                   0     219.00790      59.68850      10.88785      89.73438        14     s59661n10782e         0         0         0         1           sdc       252           tot       1.00000  
      15  cha015                   0     252.12490      59.68401      10.88920      89.16000        15     s59661n10782e         0         0         0         1           sdc       250           tot       1.00000  
      16  cha016                   0      30.31390      59.68651      10.89064      91.13260        16     s59661n10782e         0         0         0         1           sdc       252           tot       1.00000  
      17  cha017                   0      88.53555      59.67661      10.90169      91.68000        17     s59661n10782e         0         0         0         1           sdc       197           tot       1.00000  
      18  cha018                   0      83.87020      59.67536      10.90687      95.65556        18     s59661n10782e         0         0         0         1           sdc       200           tot       1.00000  
      19  cha019                   0      49.52100      59.67016      10.93191     117.00574        19     s59661n10782e         0         0         0         1           sdc       247           tot       1.00000  
      20  cha020                   0     559.87550      59.59695      10.89600      51.22100        20     s59661n10782e         0         0         0         1           sdc       168           tot       1.00000  
      21  cha021                   0      83.73360      59.67506      10.90874      96.59000        21     s59661n10782e         0         0         0         1           sdc       214           tot       1.00000  
      22  cha022                   0     541.16470      59.61399      10.88335      63.82395        22     s59661n10782e         0         0         0         1           sdc         6           tot       1.00000  
      23  cha023                   0     535.11890      59.61450      10.88230      64.15537        23     s59661n10782e         0         0         0         1           sdc       170           tot       1.00000  
      24  cha024                   0     490.97090      59.61734      10.87951      65.36467        24     s59661n10782e         0         0         0         1           sdc        25           tot       1.00000  
      25  cha025                   0     493.87260      59.61525      10.88072      64.53729        25     s59661n10782e         0         0         0         1           sdc       171           tot       1.00000  
      26  cha026                   0     472.95600      59.62392      10.87783      67.40526        26     s59661n10782e         0         0         0         1           sdc        28           tot       1.00000  
      27  cha027                   0       0.00001      59.62562      10.87872      68.19000        27     s59661n10782e         0         0         0         1           sdc       153           tot       1.00000  
      28  cha028                   0     473.12660      59.62323      10.87834      66.75500        28     s59661n10782e         0         0         0         1           sdc       144           tot       1.00000  
      29  cha029                   0     488.50290      59.62058      10.87893      65.82362        29     s59661n10782e         0         0         0         1           sdc       173           tot       1.00000  
      30  cha030                   0       0.00001      59.62202      10.87787      66.38771        30     s59661n10782e         0         0         0         1           sdc       146           tot       1.00000  
      31  cha031                   0     488.82802      59.62006      10.87870      65.32558        31     s59661n10782e         0         0         0         1           sdc        33           tot       1.00000  
      32  cha032                   0     489.81900      59.61937      10.88048      65.45074        32     s59661n10782e         0         0         0         1           sdc        34           tot       1.00000  
      33  cha033                   0     488.88510      59.61969      10.87970      65.12805        33     s59661n10782e         0         0         0         1           sdc        35           tot       1.00000  
      34  cha034                   0       0.00001      59.61903      10.88017      65.32500        34     s59661n10782e         0         0         0         1           sdc         8           tot       1.00000  
      35  cha035                   0       0.00001      59.61961      10.88005      65.97000        35     s59661n10782e         0         0         0         1           sdc        40           tot       1.00000  
      36  cha036                   0     559.83580      59.59734      10.89638      51.68026        36     s59661n10782e         0         0         0         1           sdc        20           tot       1.00000  
      37  cha037                   0     565.52880      59.59597      10.89598      50.81116        37     s59661n10782e         0         0         0         0  
      38  cha038                   0     565.23020      59.59641      10.89554      50.52822        38     s59661n10782e         0         0         0         1           sdc        37           tot       1.00000  
      39  cha039                   0     549.42540      59.61060      10.88805      61.58000        39     s59661n10782e         0         0         0         1           sdc       169           tot       1.00000  
      40  cha040                   0     489.70820      59.61961      10.88033      65.12000        40     s59661n10782e         0         0         0         1           sdc        32           tot       1.00000  
      41  cha041                   0      23.22590      59.69545      10.93104     136.81001        41     s59661n10782e         0         0         0         1           sdc       178           tot       1.00000  
      42  cha042                   0     461.81210      59.62887      10.87813      70.87500        42     s59661n10782e         0         0         0         1           sdc        43           tot       1.00000  
      43  cha043                   0       0.00001      59.62827      10.87809      70.05079        43     s59661n10782e         0         0         0         1           sdc       150           tot       1.00000  
      44  cha044                   0     471.02770      59.62612      10.87839      68.25774        44     s59661n10782e         0         0         0         1           sdc        45           tot       1.00000  
      45  cha045                   0     471.17240      59.62579      10.87865      68.25137        45     s59661n10782e         0         0         0         1           sdc        27           tot       1.00000  
      46  cha046                   0     472.06966      59.62500      10.87863      67.59079        46     s59661n10782e         0         0         0         1           sdc        47           tot       1.00000  
      47  cha047                   0     472.41880      59.62446      10.87818      67.27679        47     s59661n10782e         0         0         0         1           sdc        26           tot       1.00000  
      48  cha048                   0       0.00001      59.69495      10.93295     138.94357        48     s59661n10782e         0         0         0         1           sdc        41           tot       1.00000  
      49  cha049                   0      23.78440      59.61855      10.88579      70.48923        49     s59661n10782e         0         0         0         1           sdc       112           tot       1.00000  
      50  cha050                   0      21.29530      59.62154      10.88917      80.09000        50     s59661n10782e         0         0         0         1           sdc        49           tot       1.00000  
      51  cha051                   0      12.21730      59.63963      10.87797      99.91668        51     s59661n10782e         0         0         0         1           res         6           tot       1.00000  
      52  cha052                   0      18.48770      59.64400      10.88297      87.70843        52     s59661n10782e         0         0         0         1           sdc       141           tot       1.00000  
      53  cha053                   0      11.25910      59.63685      10.87387     100.67802        53     s59661n10782e         0         0         0         1           sdc        51           tot       1.00000  
      54  cha054                   0       8.20140      59.63993      10.87234     103.13131        54     s59661n10782e         0         0         0         1           sdc        53           tot       1.00000  
      55  cha055                   0       6.79950      59.64383      10.87184     105.75220        55     s59661n10782e         0         0         0         1           sdc        54           tot       1.00000  
      56  cha056                   0       5.37170      59.64649      10.87106     108.29000        56     s59661n10782e         0         0         0         1           sdc        55           tot       1.00000  
      57  cha057                   0       2.19120      59.65190      10.88378      91.90187        57     s59661n10782e         0         0         0         1           sdc       138           tot       1.00000  
      58  cha058                   0       7.42070      59.65337      10.89092      91.79391        58     s59661n10782e         0         0         0         1           sdc       193           tot       1.00000  
      59  cha059                   0       2.50210      59.66600      10.88105     101.75199        59     s59661n10782e         0         0         0         1           sdc       136           tot       1.00000  
      60  cha060                   0       3.65080      59.66494      10.89519     106.16000        60     s59661n10782e         0         0         0         1           sdc       192           tot       1.00000  
      61  cha061                   0      29.99640      59.68688      10.89369      94.62537        61     s59661n10782e         0         0         0         1           sdc        16           tot       1.00000  
      62  cha062                   0      29.50770      59.68942      10.90134     102.80626        62     s59661n10782e         0         0         0         1           sdc        61           tot       1.00000  
      63  cha063                   0       7.21130      59.68891      10.91586     131.79037        63     s59661n10782e         0         0         0         1           sdc        62           tot       1.00000  
      64  cha064                   0       7.02181      59.68436      10.86925      94.99292        64     s59661n10782e         0         0         0         1           sdc       190           tot       1.00000  
      65  cha065                   0       7.80180      59.68290      10.85932     101.30279        65     s59661n10782e         0         0         0         1           sdc       190           tot       1.00000  
      66  cha066                   0      22.65810      59.69864      10.86482      99.17017        66     s59661n10782e         0         0         0         1           sdc       189           tot       1.00000  
      67  cha067                   0       6.14780      59.70508      10.85221     109.72100        67     s59661n10782e         0         0         0         1           sdc       181           tot       1.00000  
      68  cha068                   0       0.06520      59.70576      10.85452     110.13500        68     s59661n10782e         0         0         0         1           sdc       184           tot       1.00000  
      69  cha069                   0       1.84850      59.70387      10.86503     108.99074        69     s59661n10782e         0         0         0         1           sdc       182           tot       1.00000  
      70  cha070                   0      11.75990      59.70097      10.85835     100.04619        70     s59661n10782e         0         0         0         1           sdc       183           tot       1.00000  
      71  cha071                   0       6.32210      59.69968      10.85782     101.60886        71     s59661n10782e         0         0         0         1           sdc        66           tot       1.00000  
      72  cha072                   0       1.89590      59.69677      10.88548      96.76009        72     s59661n10782e         0         0         0         1           sdc       166           tot       1.00000  
      73  cha073                   0       5.72910      59.69351      10.89106      96.14500        73     s59661n10782e         0         0         0         1           sdc        74           tot       1.00000  
      74  cha074                   0       5.92396      59.69293      10.88863      93.47000        74     s59661n10782e         0         0         0         1           sdc       165           tot       1.00000  
      75  cha075                   0       3.66310      59.69411      10.89388      99.24500        75     s59661n10782e         0         0         0         1           sdc        73           tot       1.00000  
      76  cha076                   0       3.09350      59.69593      10.90089     110.82063        76     s59661n10782e         0         0         0         1           sdc        77           tot       1.00000  
      77  cha077                   0       3.24320      59.69488      10.89576     104.26000        77     s59661n10782e         0         0         0         1           sdc        75           tot       1.00000  
      78  cha078                   0       8.22480      59.70237      10.92807     166.92152        78     s59661n10782e         0         0         0         1           sdc        81           tot       1.00000  
      79  cha079                   0       1.08780      59.70403      10.93645     184.20347        79     s59661n10782e         0         0         0         1           sdc       185           tot       1.00000  
      80  cha080                   0       0.85500      59.70456      10.93638     185.22526        80     s59661n10782e         0         0         0         1           sdc       185           tot       1.00000  
      81  cha081                   0      42.01680      59.70010      10.92016     132.44000        81     s59661n10782e         0         0         0         1           sdc        12           tot       1.00000  
      82  cha082                   0       0.60100      59.69861      10.92527     140.01000        82     s59661n10782e         0         0         0         1           sdc       179           tot       1.00000  
      83  cha083                   0       8.91150      59.69617      10.94146     162.73510        83     s59661n10782e         0         0         0         1           sdc         3           tot       1.00000  
      84  cha084                   0       5.19180      59.69887      10.94814     183.98500        84     s59661n10782e         0         0         0         1           sdc        83           tot       1.00000  
      85  cha085                   0       1.81560      59.69806      10.95360     202.17000        85     s59661n10782e         0         0         0         1           sdc        84           tot       1.00000  
      86  cha086                   0       1.72040      59.70060      10.95060     188.67552        86     s59661n10782e         0         0         0         1           sdc        84           tot       1.00000  
      87  cha087                   0       0.30540      59.70095      10.94465     190.61500        87     s59661n10782e         0         0         0         1           sdc        88           tot       1.00000  
      88  cha088                   0       5.95760      59.69917      10.94632     185.81500        88     s59661n10782e         0         0         0         1           sdc        83           tot       1.00000  
      89  cha089                   0       6.51150      59.69256      10.94213     155.76979        89     s59661n10782e         0         0         0         1           sdc         3           tot       1.00000  
      90  cha090                   0       2.04100      59.69055      10.95004     171.09143        90     s59661n10782e         0         0         0         1           sdc        89           tot       1.00000  
      91  cha091                   0       1.96910      59.69328      10.94981     188.33038        91     s59661n10782e         0         0         0         1           sdc        89           tot       1.00000  
      92  cha092                   0       8.51330      59.68936      10.92994     157.78249        92     s59661n10782e         0         0         0         1           sdc        93           tot       1.00000  
      93  cha093                   0      11.70120      59.69067      10.91841     132.97001        93     s59661n10782e         0         0         0         1           sdc        62           tot       1.00000  
      94  cha094                   0       2.98590      59.69112      10.96173     191.36500        94     s59661n10782e         0         0         0         1           res        27           tot       1.00000  
      95  cha095                   0       0.60740      59.68543      10.95115     187.46175        95     s59661n10782e         0         0         0         1           sdc        96           tot       1.00000  
      96  cha096                   0       0.83640      59.68686      10.95467     181.30142        96     s59661n10782e         0         0         0         1           res        27           tot       1.00000  
      97  cha097                   0      28.43390      59.67287      10.94634     159.82999        97     s59661n10782e         0         0         0         1           sdc       157           tot       1.00000  
      98  cha098                   0       0.17480      59.67832      10.94737     182.25037        98     s59661n10782e         0         0         0         1           sdc        99           tot       1.00000  
      99  cha099                   0       0.68970      59.67677      10.94800     180.25999        99     s59661n10782e         0         0         0         1           sdc        97           tot       1.00000  
     100  cha100                   0       9.89000      59.66733      10.94123     124.25170       100     s59661n10782e         0         0         0         1           sdc       291           tot       1.00000  
     101  cha101                   0       2.95578      59.67385      10.94088     158.85000       101     s59661n10782e         0         0         0         1           sdc       103           tot       1.00000  
     102  cha102                   0       1.51550      59.67664      10.94259     175.68501       102     s59661n10782e         0         0         0         1           sdc       101           tot       1.00000  
     103  cha103                   0       4.54030      59.67089      10.93965     135.49063       103     s59661n10782e         0         0         0         1           sdc       400           tot       1.00000  
     104  cha104                   0      12.07640      59.68330      10.92185     143.47500       104     s59661n10782e         0         0         0         1           sdc       107           tot       1.00000  
     105  cha105                   0       4.18340      59.68162      10.92896     159.00000       105     s59661n10782e         0         0         0         1           sdc       104           tot       1.00000  
     106  cha106                   0       1.76350      59.67868      10.93180     169.72000       106     s59661n10782e         0         0         0         1           sdc       105           tot       1.00000  
     107  cha107                   0      18.96400      59.67746      10.91696     120.50835       107     s59661n10782e         0         0         0         1           sdc       387           tot       1.00000  
     108  cha108                   0       9.73090      59.61644      10.90214      90.57100       108     s59661n10782e         0         0         0         1           sdc       396           tot       1.00000  
     109  cha109                   0      14.06560      59.61757      10.89510      85.07773       109     s59661n10782e         0         0         0         1           sdc       121           tot       1.00000  
     110  cha110                   0       1.85280      59.71835      10.89144     134.55000       110     s59661n10782e         0         0         0         1           sdc         2           tot       1.00000  
     111  cha111                   0       8.70370      59.62166      10.86860      80.47745       111     s59661n10782e         0         0         0         1           sdc       394           tot       1.00000  
     112  cha112                   0      40.98280      59.61612      10.88341      66.38089       112     s59661n10782e         0         0         0         1           sdc        23           tot       1.00000  
     113  cha113                   0       4.64080      59.71714      10.89549     135.43000       113     s59661n10782e         0         0         0         1           sdc         2           tot       1.00000  
     114  cha114                   0       4.40030      59.68595      10.96236     178.61997       114     s59661n10782e         0         0         0         1           res        27           tot       1.00000  
     115  cha115                   0       3.25310      59.60687      10.90016      69.82986       115     s59661n10782e         0         0         0         1           sdc       124           tot       1.00000  
     116  cha116                   0       4.38310      59.70765      10.85292     113.23000       116     s59661n10782e         0         0         0         1           sdc       180           tot       1.00000  
     117  cha117                   0       1.39030      59.71325      10.86887     119.97000       117     s59661n10782e         0         0         0         1           sdc       161           tot       1.00000  
     118  cha118                   0       4.20190      59.60265      10.89469      74.54000       118     s59661n10782e         0         0         0         1           res        35           tot       1.00000  
     119  cha119                   0       4.86560      59.60006      10.89424      63.79432       119     s59661n10782e         0         0         0         1           sdc       402           tot       1.00000  
     120  cha120                   0       3.32293      59.62792      10.86827      95.72000       120     s59661n10782e         0         0         0         1           sdc       111           tot       1.00000  
     121  cha121                   0      16.02352      59.61718      10.88845      76.25153       121     s59661n10782e         0         0         0         1           sdc       112           tot       1.00000  
     122  cha122                   0       2.15370      59.65272      10.87134     119.25038       122     s59661n10782e         0         0         0         1           sdc        56           tot       1.00000  
     123  cha123                   0       0.00001      59.71346      10.86738     119.96178       123     s59661n10782e         0         0         0         1           res        34           tot       1.00000  
     124  cha124                   0     559.00040      59.60143      10.89849      57.42100       124     s59661n10782e         0         0         0         1           sdc       149           tot       1.00000  
     125  cha125                   0      70.60690      59.70240      10.89771     103.74783       125     s59661n10782e         0         0         0         1           sdc       148           tot       1.00000  
     126  cha126                   0      11.34540      59.70318      10.91024     118.32452       126     s59661n10782e         0         0         0         1           sdc       125           tot       1.00000  
     127  cha127                   0      97.18600      59.69672      10.88748      94.08509       127     s59661n10782e         0         0         0         1           sdc       166           tot       1.00000  
     128  cha128                   0     545.14250      59.61170      10.88682      61.98411       128     s59661n10782e         0         0         0         1           sdc         4           tot       1.00000  
     129  cha129                   0      38.35930      59.68745      10.87639      95.06894       129     s59661n10782e         0         0         0         1           sdc         9           tot       1.00000  
     130  cha130                   0      38.29250      59.68993      10.87412      96.28543       130     s59661n10782e         0         0         0         1           sdc       129           tot       1.00000  
     131  cha131                   0      17.68072      59.68931      10.88293      94.77820       131     s59661n10782e         0         0         0         1           sdc       132           tot       1.00000  
     132  cha132                   0      69.09357      59.68975      10.88463      94.75552       132     s59661n10782e         0         0         0         1           sdc       255           tot       1.00000  
     133  cha133                   0     181.52860      59.68994      10.88541      90.80000       133     s59661n10782e         0         0         0         1           sdc        14           tot       1.00000  
     134  cha134                   0     264.53000      59.67783      10.88874      87.67820       134     s59661n10782e         0         0         0         1           sdc       412           tot       1.00000  
     135  cha135                   0     363.41650      59.67687      10.89289      88.98352       135     s59661n10782e         0         0         0         1           sdc       412           tot       1.00000  
     136  cha136                   0     395.62210      59.66070      10.88740      86.80952       136     s59661n10782e         0         0         0         1           sdc       193           tot       1.00000  
     137  cha137                   0     372.16300      59.67065      10.88810      87.01251       137     s59661n10782e         0         0         0         1           sdc       191           tot       1.00000  
     138  cha138                   0     426.20074      59.65113      10.88567      86.61365       138     s59661n10782e         0         0         0         1           sdc       139           tot       1.00000  