hru.con: written by SWAT+ editor v2.1.0 on 2023-05-30 10:38 for SWAT+ rev.60.5.4
      id  name                gis_id          area           lat           lon          elev       hru               wst       cst      ovfl      rule   out_tot  
       1  hru0001                  0       0.22164      59.70014      10.86981     108.64928         1     s59661n10782e         0         0         0         0  
       2  hru0002                  0       0.32427      59.70262      10.87107     119.80377         2     s59661n10782e         0         0         0         0  
       3  hru0003                  0       0.14994      59.70125      10.87110     110.45870         3     s59661n10782e         0         0         0         0  
       4  hru0004                  0       0.07073      59.69979      10.87510     112.03050         4     s59661n10782e         0         0         0         0  
       5  hru0005                  0       0.03613      59.70208      10.87172     113.24214         5     s59661n10782e         0         0         0         0  
       6  hru0006                  0       1.26859      59.69577      10.87458     112.76345         6     s59661n10782e         0         0         0         0  
       7  hru0007                  0       0.02364      59.70196      10.87214     115.28360         7     s59661n10782e         0         0         0         0  
       8  hru0008                  0       0.19944      59.70192      10.87046     114.79365         8     s59661n10782e         0         0         0         0  
       9  hru0009                  0       4.56611      59.69981      10.86837     108.43774         9     s59661n10782e         0         0         0         0  
      10  hru0010                  0       4.72825      59.70175      10.87348     109.55623        10     s59661n10782e         0         0         0         0  
      11  hru0011                  0       2.39774      59.70013      10.87117     105.11624        11     s59661n10782e         0         0         0         0  
      12  hru0012                  0       2.00818      59.70383      10.87398     114.74165        12     s59661n10782e         0         0         0         0  
      13  hru0013                  0       5.69548      59.69845      10.87482     109.81018        13     s59661n10782e         0         0         0         0  
      14  hru0014                  0       2.95120      59.69773      10.87043     101.80598        14     s59661n10782e         0         0         0         0  
      15  hru0015                  0       0.13594      59.70392      10.87507     114.02283        15     s59661n10782e         0         0         0         0  
      16  hru0016                  0       0.11071      59.70220      10.87534     107.76720        16     s59661n10782e         0         0         0         0  
      17  hru0017                  0       0.00537      59.70141      10.87563     105.01242        17     s59661n10782e         0         0         0         0  
      18  hru0018                  0       0.16041      59.70048      10.87594     109.38856        18     s59661n10782e         0         0         0         0  
      19  hru0019                  0       0.08129      59.69903      10.87613     113.71467        19     s59661n10782e         0         0         0         0  
      20  hru0020                  0       0.17814      59.69727      10.87603     112.31289        20     s59661n10782e         0         0         0         0  
      21  hru0021                  0       0.35253      59.69601      10.87335     109.91137        21     s59661n10782e         0         0         0         0  
      22  hru0022                  0       0.20476      59.69656      10.87435     110.74169        22     s59661n10782e         0         0         0         0  
      23  hru0023                  0       0.04493      59.69672      10.87586     112.07224        23     s59661n10782e         0         0         0         0  
      24  hru0024                  0       0.09199      59.69610      10.87544     113.56611        24     s59661n10782e         0         0         0         0  
      25  hru0025                  0       0.12596      59.69803      10.87333     104.22122        25     s59661n10782e         0         0         0         0  
      26  hru0026                  0       0.12884      59.69918      10.87286     102.26248        26     s59661n10782e         0         0         0         0  
      27  hru0027                  0       0.07288      59.70211      10.87527     107.12715        27     s59661n10782e         0         0         0         0  
      28  hru0028                  0       0.04536      59.69946      10.87599     113.23867        28     s59661n10782e         0         0         0         0  
      29  hru0029                  0       0.03039      59.70437      10.87494     117.04743        29     s59661n10782e         0         0         0         0  
      30  hru0030                  0       0.04356      59.69945      10.87617     112.30489        30     s59661n10782e         0         0         0         0  
      31  hru0031                  0       0.01621      59.70152      10.87570     105.00739        31     s59661n10782e         0         0         0         0  
      32  hru0032                  0       0.08047      59.70082      10.87601     108.05380        32     s59661n10782e         0         0         0         0  
      33  hru0033                  0       0.05257      59.70228      10.87540     107.98983        33     s59661n10782e         0         0         0         0  
      34  hru0034                  0       0.06158      59.70367      10.87518     111.90419        34     s59661n10782e         0         0         0         0  
      35  hru0035                  0       0.04298      59.70119      10.87690     108.71340        35     s59661n10782e         0         0         0         0  
      36  hru0036                  0       0.06574      59.69766      10.87631     112.40316        36     s59661n10782e         0         0         0         0  
      37  hru0037                  0       0.11045      59.70474      10.87748     106.88299        37     s59661n10782e         0         0         0         0  
      38  hru0038                  0       0.08689      59.70412      10.87743     106.33683        38     s59661n10782e         0         0         0         0  
      39  hru0039                  0       0.11980      59.70333      10.87728     105.54819        39     s59661n10782e         0         0         0         0  
      40  hru0040                  0       0.01010      59.70131      10.87569     105.16000        40     s59661n10782e         0         0         0         0  
      41  hru0041                  0       0.28332      59.69803      10.86810     100.07673        41     s59661n10782e         0         0         0         0  
      42  hru0042                  0       0.03555      59.69896      10.87225     101.21453        42     s59661n10782e         0         0         0         0  
      43  hru0043                  0       0.15220      59.69862      10.87103     100.80835        43     s59661n10782e         0         0         0         0  
      44  hru0044                  0       0.06010      59.70078      10.87510     103.00029        44     s59661n10782e         0         0         0         0  
      45  hru0045                  0       0.13811      59.70015      10.87400     102.55063        45     s59661n10782e         0         0         0         0  
      46  hru0046                  0       0.02954      59.70121      10.87552     103.52009        46     s59661n10782e         0         0         0         0  
      47  hru0047                  0       0.02028      59.70142      10.87590     105.18191        47     s59661n10782e         0         0         0         0  
      48  hru0048                  0       0.00728      59.70134      10.87579     104.96823        48     s59661n10782e         0         0         0         0  
      49  hru0049                  0       0.00583      59.69766      10.86626      98.72230        49     s59661n10782e         0         0         0         0  
      50  hru0050                  0       0.31766      59.69665      10.86656      99.05644        50     s59661n10782e         0         0         0         0  
      51  hru0051                  0       0.03666      59.70268      10.87693     105.00763        51     s59661n10782e         0         0         0         0  
      52  hru0052                  0       0.15827      59.70195      10.87642     104.97391        52     s59661n10782e         0         0         0         0  
      53  hru0053                  0       0.09594      59.70076      10.87215     106.12426        53     s59661n10782e         0         0         0         0  
      54  hru0054                  0       0.02450      59.69786      10.87382     106.09345        54     s59661n10782e         0         0         0         0  
      55  hru0055                  0       0.21244      59.69741      10.87125     101.71586        55     s59661n10782e         0         0         0         0  
      56  hru0056                  0       2.10037      59.69858      10.86646     100.55592        56     s59661n10782e         0         0         0         0  
      57  hru0057                  0       0.56736      59.70075      10.87448     103.88580        57     s59661n10782e         0         0         0         0  
      58  hru0058                  0       0.86029      59.69955      10.87246     103.22540        58     s59661n10782e         0         0         0         0  
      59  hru0059                  0       1.13055      59.69867      10.86990     101.99277        59     s59661n10782e         0         0         0         0  
      60  hru0060                  0       0.00640      59.69812      10.86766     100.76018        60     s59661n10782e         0         0         0         0  
      61  hru0061                  0       0.50608      59.70006      10.87429     103.91967        61     s59661n10782e         0         0         0         0  
      62  hru0062                  0       2.64587      59.69722      10.86817     100.46431        62     s59661n10782e         0         0         0         0  
      63  hru0063                  0       1.09018      59.70382      10.87686     107.09678        63     s59661n10782e         0         0         0         0  
      64  hru0064                  0       0.01980      59.70132      10.87608     106.46917        64     s59661n10782e         0         0         0         0  
      65  hru0065                  0       0.02803      59.69833      10.86808     101.40333        65     s59661n10782e         0         0         0         0  
      66  hru0066                  0       0.02860      59.70009      10.87329     103.05971        66     s59661n10782e         0         0         0         0  
      67  hru0067                  0       0.02402      59.69904      10.87160     102.06612        67     s59661n10782e         0         0         0         0  
      68  hru0068                  0       0.00624      59.69814      10.86779     100.81851        68     s59661n10782e         0         0         0         0  
      69  hru0069                  0       0.09644      59.71091      10.88888     124.64862        69     s59661n10782e         0         0         0         0  
      70  hru0070                  0       0.03699      59.70776      10.89117     117.55075        70     s59661n10782e         0         0         0         0  
      71  hru0071                  0       0.14348      59.70845      10.89082     119.99436        71     s59661n10782e         0         0         0         0  
      72  hru0072                  0       0.50770      59.70800      10.89097     118.90822        72     s59661n10782e         0         0         0         0  
      73  hru0073                  0       0.23723      59.70822      10.89358     117.86883        73     s59661n10782e         0         0         0         0  
      74  hru0074                  0       0.89396      59.70758      10.88463     115.95989        74     s59661n10782e         0         0         0         0  
      75  hru0075                  0       0.31794      59.70875      10.88405     118.69638        75     s59661n10782e         0         0         0         0  
      76  hru0076                  0       0.21884      59.69988      10.88589     101.83428        76     s59661n10782e         0         0         0         0  
      77  hru0077                  0       0.00954      59.70698      10.88659     112.96000        77     s59661n10782e         0         0         0         0  
      78  hru0078                  0       0.01930      59.70686      10.88715     113.21667        78     s59661n10782e         0         0         0         0  
      79  hru0079                  0       0.50460      59.70201      10.88505     106.21154        79     s59661n10782e         0         0         0         0  
      80  hru0080                  0       1.26677      59.70786      10.88557     115.56911        80     s59661n10782e         0         0         0         0  
      81  hru0081                  0       0.03593      59.70686      10.88512     112.75028        81     s59661n10782e         0         0         0         0  
      82  hru0082                  0      21.77502      59.71178      10.88332     123.58493        82     s59661n10782e         0         0         0         0  
      83  hru0083                  0       2.83006      59.70713      10.89269     114.92706        83     s59661n10782e         0         0         0         0  
      84  hru0084                  0       2.85858      59.70731      10.88877     114.95656        84     s59661n10782e         0         0         0         0  
      85  hru0085                  0       0.04621      59.69951      10.88596     100.34415        85     s59661n10782e         0         0         0         0  
      86  hru0086                  0       7.45905      59.70264      10.88297     108.91560        86     s59661n10782e         0         0         0         0  
      87  hru0087                  0       0.18085      59.70164      10.88545     105.12356        87     s59661n10782e         0         0         0         0  
      88  hru0088                  0       7.06988      59.70485      10.88454     110.76550        88     s59661n10782e         0         0         0         0  
      89  hru0089                  0       0.00988      59.70527      10.88384     111.78273        89     s59661n10782e         0         0         0         0  
      90  hru0090                  0      14.28861      59.70375      10.88873     108.58677        90     s59661n10782e         0         0         0         0  
      91  hru0091                  0       0.07380      59.70639      10.88641     111.07753        91     s59661n10782e         0         0         0         0  
      92  hru0092                  0       0.22398      59.70663      10.88697     112.50257        92     s59661n10782e         0         0         0         0  
      93  hru0093                  0       0.08971      59.70942      10.88256     120.32972        93     s59661n10782e         0         0         0         0  
      94  hru0094                  0       0.12355      59.70881      10.88501     118.84633        94     s59661n10782e         0         0         0         0  
      95  hru0095                  0       0.01170      59.70841      10.88670     117.46613        95     s59661n10782e         0         0         0         0  
      96  hru0096                  0       0.03156      59.70828      10.88751     117.38447        96     s59661n10782e         0         0         0         0  
      97  hru0097                  0       0.10564      59.70800      10.88919     117.28421        97     s59661n10782e         0         0         0         0  
      98  hru0098                  0       0.12141      59.70700      10.89074     115.37985        98     s59661n10782e         0         0         0         0  
      99  hru0099                  0       0.04352      59.70842      10.89610     119.94870        99     s59661n10782e         0         0         0         0  
     100  hru0100                  0       0.03645      59.70804      10.89418     117.48488       100     s59661n10782e         0         0         0         0  
     101  hru0101                  0       0.02465      59.70788      10.89274     116.46592       101     s59661n10782e         0         0         0         0  
     102  hru0102                  0       0.06973      59.70832      10.88442     116.97645       102     s59661n10782e         0         0         0         0  
     103  hru0103                  0       0.05389      59.70706      10.88390     114.32638       103     s59661n10782e         0         0         0         0  
     104  hru0104                  0       0.04789      59.70583      10.88271     113.75782       104     s59661n10782e         0         0         0         0  
     105  hru0105                  0       0.44228      59.70906      10.88265     118.25819       105     s59661n10782e         0         0         0         0  
     106  hru0106                  0       0.04172      59.70626      10.89078     113.40307       106     s59661n10782e         0         0         0         0  
     107  hru0107                  0       0.03348      59.70715      10.89068     115.14815       107     s59661n10782e         0         0         0         0  
     108  hru0108                  0       0.02186      59.70769      10.89075     117.81400       108     s59661n10782e         0         0         0         0  
     109  hru0109                  0       0.03289      59.70719      10.89085     115.68864       109     s59661n10782e         0         0         0         0  
     110  hru0110                  0       0.03618      59.70785      10.88962     116.90051       110     s59661n10782e         0         0         0         0  
     111  hru0111                  0       0.03476      59.70817      10.88795     116.89001       111     s59661n10782e         0         0         0         0  
     112  hru0112                  0       0.04608      59.70621      10.89099     112.98672       112     s59661n10782e         0         0         0         0  
     113  hru0113                  0       0.02326      59.70611      10.89265     113.07538       113     s59661n10782e         0         0         0         0  
     114  hru0114                  0       0.04297      59.70653      10.89187     113.08787       114     s59661n10782e         0         0         0         0  
     115  hru0115                  0       0.02937      59.71152      10.88691     123.91730       115     s59661n10782e         0         0         0         0  
     116  hru0116                  0       0.03102      59.70469      10.88682     107.37011       116     s59661n10782e         0         0         0         0  
     117  hru0117                  0       0.04706      59.70409      10.88679     106.57887       117     s59661n10782e         0         0         0         0  
     118  hru0118                  0       0.05990      59.70346      10.88626     105.68193       118     s59661n10782e         0         0         0         0  
     119  hru0119                  0       0.04163      59.70275      10.88595     104.56473       119     s59661n10782e         0         0         0         0  
     120  hru0120                  0       0.08557      59.70204      10.88625     103.38223       120     s59661n10782e         0         0         0         0  
     121  hru0121                  0       0.06536      59.70131      10.88611     101.78457       121     s59661n10782e         0         0         0         0  
     122  hru0122                  0       0.06045      59.70060      10.88591      99.46259       122     s59661n10782e         0         0         0         0  
     123  hru0123                  0       0.05908      59.69994      10.88650      97.56057       123     s59661n10782e         0         0         0         0  
     124  hru0124                  0       0.05767      59.69920      10.88688      96.51378       124     s59661n10782e         0         0         0         0  
     125  hru0125                  0       0.07125      59.70801      10.88682     115.12360       125     s59661n10782e         0         0         0         0  
     126  hru0126                  0       0.06551      59.70745      10.88662     113.35812       126     s59661n10782e         0         0         0         0  
     127  hru0127                  0       0.01422      59.70709      10.88645     112.37697       127     s59661n10782e         0         0         0         0  
     128  hru0128                  0       0.03651      59.69995      10.88639      97.18809       128     s59661n10782e         0         0         0         0  
     129  hru0129                  0       0.02709      59.70679      10.88621     111.42019       129     s59661n10782e         0         0         0         0  
     130  hru0130                  0       0.04899      59.70624      10.88620     109.85997       130     s59661n10782e         0         0         0         0  
     131  hru0131                  0       0.03932      59.70554      10.88659     108.46001       131     s59661n10782e         0         0         0         0  
     132  hru0132                  0       0.02698      59.70479      10.88671     107.26584       132     s59661n10782e         0         0         0         0  
     133  hru0133                  0       0.03877      59.70409      10.88670     106.32914       133     s59661n10782e         0         0         0         0  
     134  hru0134                  0       0.04408      59.70347      10.88615     105.27498       134     s59661n10782e         0         0         0         0  
     135  hru0135                  0       0.03502      59.70283      10.88586     104.30431       135     s59661n10782e         0         0         0         0  
     136  hru0136                  0       0.04922      59.70204      10.88610     103.06134       136     s59661n10782e         0         0         0         0  
     137  hru0137                  0       0.07357      59.70129      10.88594     101.57833       137     s59661n10782e         0         0         0         0  
     138  hru0138                  0       0.06665      59.70056      10.88582      99.81516       138     s59661n10782e         0         0         0         0  
     139  hru0139                  0       0.04321      59.70678      10.88632     111.77001       139     s59661n10782e         0         0         0         0  
     140  hru0140                  0       0.05064      59.70622      10.88632     110.03800       140     s59661n10782e         0         0         0         0  
     141  hru0141                  0       0.06695      59.70554      10.88669     108.52638       141     s59661n10782e         0         0         0         0  
     142  hru0142                  0       0.01900      59.70501      10.88674     107.92208       142     s59661n10782e         0         0         0         0  
     143  hru0143                  0       0.00819      59.70837      10.88698     117.47250       143     s59661n10782e         0         0         0         0  
     144  hru0144                  0       0.03208      59.69912      10.88704      95.95307       144     s59661n10782e         0         0         0         0  
     145  hru0145                  0       0.01030      59.70831      10.88694     116.63505       145     s59661n10782e         0         0         0         0  
     146  hru0146                  0       0.11095      59.70998      10.88701     120.91095       146     s59661n10782e         0         0         0         0  
     147  hru0147                  0       0.10217      59.70929      10.88725     119.10126       147     s59661n10782e         0         0         0         0  
     148  hru0148                  0       0.06361      59.70864      10.88712     117.50818       148     s59661n10782e         0         0         0         0  
     149  hru0149                  0       0.03167      59.71234      10.88763     126.18227       149     s59661n10782e         0         0         0         0  
     150  hru0150                  0       0.09743      59.71191      10.88729     124.98328       150     s59661n10782e         0         0         0         0  
     151  hru0151                  0       0.08890      59.71128      10.88698     123.51541       151     s59661n10782e         0         0         0         0  
     152  hru0152                  0       0.07588      59.71068      10.88685     122.25928       152     s59661n10782e         0         0         0         0  
     153  hru0153                  0       0.01297      59.71036      10.88693     121.58635       153     s59661n10782e         0         0         0         0  
     154  hru0154                  0       0.03844      59.71359      10.88807     128.32188       154     s59661n10782e         0         0         0         0  
     155  hru0155                  0       0.07384      59.71321      10.88799     127.65220       155     s59661n10782e         0         0         0         0  
     156  hru0156                  0       0.06702      59.71267      10.88779     126.72138       156     s59661n10782e         0         0         0         0  
     157  hru0157                  0       0.05715      59.70704      10.88529     113.18262       157     s59661n10782e         0         0         0         0  
     158  hru0158                  0       0.37498      59.71134      10.88525     123.23569       158     s59661n10782e         0         0         0         0  
     159  hru0159                  0       0.37433      59.71089      10.88230     121.27017       159     s59661n10782e         0         0         0         0  
     160  hru0160                  0       0.16081      59.70900      10.89008     118.95904       160     s59661n10782e         0         0         0         0  
     161  hru0161                  0       0.09158      59.70713      10.89251     113.33287       161     s59661n10782e         0         0         0         0  
     162  hru0162                  0       0.09643      59.70735      10.88835     114.14106       162     s59661n10782e         0         0         0         0  
     163  hru0163                  0       0.08366      59.70591      10.89187     111.10013       163     s59661n10782e         0         0         0         0  
     164  hru0164                  0       0.06181      59.70232      10.88412     107.05471       164     s59661n10782e         0         0         0         0  
     165  hru0165                  0       0.03951      59.70151      10.88511     103.81237       165     s59661n10782e         0         0         0         0  
     166  hru0166                  0       0.02560      59.70058      10.88509     102.61806       166     s59661n10782e         0         0         0         0  
     167  hru0167                  0       0.00656      59.70664      10.88553     111.77000       167     s59661n10782e         0         0         0         0  
     168  hru0168                  0       0.34342      59.70479      10.88433     110.68355       168     s59661n10782e         0         0         0         0  
     169  hru0169                  0       0.08562      59.70466      10.88570     109.90350       169     s59661n10782e         0         0         0         0  
     170  hru0170                  0       0.03629      59.70660      10.88743     112.03956       170     s59661n10782e         0         0         0         0  
     171  hru0171                  0       0.38857      59.70291      10.88870     105.28785       171     s59661n10782e         0         0         0         0  
     172  hru0172                  0       0.01129      59.70452      10.88734     108.09714       172     s59661n10782e         0         0         0         0  
     173  hru0173                  0       0.02180      59.70634      10.88694     111.23913       173     s59661n10782e         0         0         0         0  
     174  hru0174                  0       0.03292      59.69970      10.88649      96.63517       174     s59661n10782e         0         0         0         0  
     175  hru0175                  0       0.00563      59.69948      10.88659      96.59642       175     s59661n10782e         0         0         0         0  
     176  hru0176                  0       0.01845      59.70854      10.88704     117.33789       176     s59661n10782e         0         0         0         0  
     177  hru0177                  0       0.47656      59.70754      10.88630     114.21848       177     s59661n10782e         0         0         0         0  
     178  hru0178                  0       1.85695      59.71106      10.88693     123.16663       178     s59661n10782e         0         0         0         0  
     179  hru0179                  0       0.14358      59.71184      10.88843     125.82565       179     s59661n10782e         0         0         0         0  
     180  hru0180                  0       1.01258      59.71017      10.88743     121.46455       180     s59661n10782e         0         0         0         0  
     181  hru0181                  0       0.23018      59.70766      10.88693     114.76734       181     s59661n10782e         0         0         0         0  
     182  hru0182                  0       0.07521      59.69950      10.88625      97.65000       182     s59661n10782e         0         0         0         0  