initial.aqu: written by SWAT+ editor v2.1.0 on 2023-05-30 10:39 for SWAT+ rev.60.5.4
name                       org_min              pest              path              hmet              salt  description       
initaqu1                   no_init              null              null              null              null  null              
