landuse.lum: written by SWAT+ editor v2.1.0 on 2023-05-30 10:39 for SWAT+ rev.60.5.4
name                         cal_group          plnt_com               mgt               cn2         cons_prac             urban            urb_ro           ov_mann              tile               sep               vfs              grww               bmp  
a_001f_1_drn_lum                  null         nopl_comm              null              null              null              null              null              null         mw24_1000              null              null              null              null  
a_001f_2_drn_lum                  null         nopl_comm              null              null              null              null              null              null         mw24_1000              null              null              null              null  
a_001f_3_drn_lum                  null         nopl_comm              null              null              null              null              null              null         mw24_1000              null              null              null              null  
a_001f_4_drn_lum                  null         nopl_comm              null              null              null              null              null              null         mw24_1000              null              null              null              null  
a_001f_5_drn_lum                  null         nopl_comm              null              null              null              null              null              null         mw24_1000              null              null              null              null  
a_001f_6_drn_lum                  null         nopl_comm              null              null              null              null              null              null         mw24_1000              null              null              null              null  
a_001f_7_drn_lum                  null         nopl_comm              null              null              null              null              null              null         mw24_1000              null              null              null              null  
a_002f_1_drn_lum                  null         nopl_comm              null              null              null              null              null              null         mw24_1000              null              null              null              null  
a_002f_2_drn_lum                  null         nopl_comm              null              null              null              null              null              null         mw24_1000              null              null              null              null  
a_002f_3_drn_lum                  null         nopl_comm              null              null              null              null              null              null         mw24_1000              null              null              null              null  
a_002f_4_drn_lum                  null         nopl_comm              null              null              null              null              null              null         mw24_1000              null              null              null              null  
a_002f_5_drn_lum                  null         nopl_comm              null              null              null              null              null              null         mw24_1000              null              null              null              null  
a_002f_6_drn_lum                  null         nopl_comm              null              null              null              null              null              null         mw24_1000              null              null              null              null  
a_002f_7_drn_lum                  null         nopl_comm              null              null              null              null              null              null         mw24_1000              null              null              null              null  
a_002f_8_drn_lum                  null         nopl_comm              null              null              null              null              null              null         mw24_1000              null              null              null              null  
a_003f_1_drn_lum                  null         nopl_comm              null              null              null              null              null              null         mw24_1000              null              null              null              null  
a_003f_2_drn_lum                  null         nopl_comm              null              null              null              null              null              null         mw24_1000              null              null              null              null  
a_004f_1_drn_lum                  null         nopl_comm              null              null              null              null              null              null         mw24_1000              null              null              null              null  
a_005f_1_drn_lum                  null         nopl_comm              null              null              null              null              null              null         mw24_1000              null              null              null              null  
a_005f_2_drn_lum                  null         nopl_comm              null              null              null              null              null              null         mw24_1000              null              null              null              null  
a_005f_3_drn_lum                  null         nopl_comm              null              null              null              null              null              null         mw24_1000              null              null              null              null  
a_006f_1_drn_lum                  null         nopl_comm              null              null              null              null              null              null         mw24_1000              null              null              null              null  
a_007f_1_drn_lum                  null         nopl_comm              null              null              null              null              null              null         mw24_1000              null              null              null              null  
a_007f_2_drn_lum                  null         nopl_comm              null              null              null              null              null              null         mw24_1000              null              null              null              null  
a_007f_3_drn_lum                  null         nopl_comm              null              null              null              null              null              null         mw24_1000              null              null              null              null  
a_007f_4_drn_lum                  null         nopl_comm              null              null              null              null              null              null         mw24_1000              null              null              null              null  
a_008f_1_drn_lum                  null         nopl_comm              null              null              null              null              null              null         mw24_1000              null              null              null              null  
a_008f_2_drn_lum                  null         nopl_comm              null              null              null              null              null              null         mw24_1000              null              null              null              null  
a_008f_3_drn_lum                  null         nopl_comm              null              null              null              null              null              null         mw24_1000              null              null              null              null  
a_009f_1_drn_lum                  null         nopl_comm              null              null              null              null              null              null         mw24_1000              null              null              null              null  
a_009f_2_drn_lum                  null         nopl_comm              null              null              null              null              null              null         mw24_1000              null              null              null              null  
a_010f_1_drn_lum                  null         nopl_comm              null              null              null              null              null              null         mw24_1000              null              null              null              null  
a_011f_1_drn_lum                  null         nopl_comm              null              null              null              null              null              null         mw24_1000              null              null              null              null  
a_011f_2_drn_lum                  null         nopl_comm              null              null              null              null              null              null         mw24_1000              null              null              null              null  
a_011f_3_drn_lum                  null         nopl_comm              null              null              null              null              null              null         mw24_1000              null              null              null              null  
a_011f_4_drn_lum                  null         nopl_comm              null              null              null              null              null              null         mw24_1000              null              null              null              null  
a_012f_1_drn_lum                  null         nopl_comm              null              null              null              null              null              null         mw24_1000              null              null              null              null  
a_012f_2_drn_lum                  null         nopl_comm              null              null              null              null              null              null         mw24_1000              null              null              null              null  
a_012f_3_drn_lum                  null         nopl_comm              null              null              null              null              null              null         mw24_1000              null              null              null              null  
a_012f_4_drn_lum                  null         nopl_comm              null              null              null              null              null              null         mw24_1000              null              null              null              null  
a_012f_5_drn_lum                  null         nopl_comm              null              null              null              null              null              null         mw24_1000              null              null              null              null  
a_012f_6_drn_lum                  null         nopl_comm              null              null              null              null              null              null         mw24_1000              null              null              null              null  
a_013f_1_drn_lum                  null         nopl_comm              null              null              null              null              null              null         mw24_1000              null              null              null              null  
a_013f_2_drn_lum                  null         nopl_comm              null              null              null              null              null              null         mw24_1000              null              null              null              null  
a_014f_1_drn_lum                  null         nopl_comm              null              null              null              null              null              null         mw24_1000              null              null              null              null  
a_014f_2_drn_lum                  null         nopl_comm              null              null              null              null              null              null         mw24_1000              null              null              null              null  
a_015f_1_drn_lum                  null         nopl_comm              null              null              null              null              null              null         mw24_1000              null              null              null              null  
a_015f_2_drn_lum                  null         nopl_comm              null              null              null              null              null              null         mw24_1000              null              null              null              null  
a_016f_1_drn_lum                  null         nopl_comm              null              null              null              null              null              null         mw24_1000              null              null              null              null  
a_016f_2_drn_lum                  null         nopl_comm              null              null              null              null              null              null         mw24_1000              null              null              null              null  
a_016f_3_drn_lum                  null         nopl_comm              null              null              null              null              null              null         mw24_1000              null              null              null              null  
a_016f_4_drn_lum                  null         nopl_comm              null              null              null              null              null              null         mw24_1000              null              null              null              null  
a_017f_1_drn_lum                  null         nopl_comm              null              null              null              null              null              null         mw24_1000              null              null              null              null  
a_017f_2_drn_lum                  null         nopl_comm              null              null              null              null              null              null         mw24_1000              null              null              null              null  
a_017f_3_drn_lum                  null         nopl_comm              null              null              null              null              null              null         mw24_1000              null              null              null              null  
a_018f_1_drn_lum                  null         nopl_comm              null              null              null              null              null              null         mw24_1000              null              null              null              null  
a_019f_1_drn_lum                  null         nopl_comm              null              null              null              null              null              null         mw24_1000              null              null              null              null  
a_019f_2_drn_lum                  null         nopl_comm              null              null              null              null              null              null         mw24_1000              null              null              null              null  
a_019f_3_drn_lum                  null         nopl_comm              null              null              null              null              null              null         mw24_1000              null              null              null              null  
a_019f_4_drn_lum                  null         nopl_comm              null              null              null              null              null              null         mw24_1000              null              null              null              null  
a_020f_1_drn_lum                  null         nopl_comm              null              null              null              null              null              null         mw24_1000              null              null              null              null  
a_020f_2_drn_lum                  null         nopl_comm              null              null              null              null              null              null         mw24_1000              null              null              null              null  
a_020f_3_drn_lum                  null         nopl_comm              null              null              null              null              null              null         mw24_1000              null              null              null              null  
a_020f_4_drn_lum                  null         nopl_comm              null              null              null              null              null              null         mw24_1000              null              null              null              null  
a_021f_1_drn_lum                  null         nopl_comm              null              null              null              null              null              null         mw24_1000              null              null              null              null  
a_021f_2_drn_lum                  null         nopl_comm              null              null              null              null              null              null         mw24_1000              null              null              null              null  
a_021f_3_drn_lum                  null         nopl_comm              null              null              null              null              null              null         mw24_1000              null              null              null              null  
a_022f_1_drn_lum                  null         nopl_comm              null              null              null              null              null              null         mw24_1000              null              null              null              null  
a_022f_2_drn_lum                  null         nopl_comm              null              null              null              null              null              null         mw24_1000              null              null              null              null  
a_022f_3_drn_lum                  null         nopl_comm              null              null              null              null              null              null         mw24_1000              null              null              null              null  
a_022f_4_drn_lum                  null         nopl_comm              null              null              null              null              null              null         mw24_1000              null              null              null              null  
a_022f_5_drn_lum                  null         nopl_comm              null              null              null              null              null              null         mw24_1000              null              null              null              null  
a_022f_6_drn_lum                  null         nopl_comm              null              null              null              null              null              null         mw24_1000              null              null              null              null  
a_022f_7_drn_lum                  null         nopl_comm              null              null              null              null              null              null         mw24_1000              null              null              null              null  
a_022f_8_drn_lum                  null         nopl_comm              null              null              null              null              null              null         mw24_1000              null              null              null              null  
a_023f_1_drn_lum                  null         nopl_comm              null              null              null              null              null              null         mw24_1000              null              null              null              null  
a_023f_2_drn_lum                  null         nopl_comm              null              null              null              null              null              null         mw24_1000              null              null              null              null  
a_023f_3_drn_lum                  null         nopl_comm              null              null              null              null              null              null         mw24_1000              null              null              null              null  
a_023f_4_drn_lum                  null         nopl_comm              null              null              null              null              null              null         mw24_1000              null              null              null              null  
a_023f_5_drn_lum                  null         nopl_comm              null              null              null              null              null              null         mw24_1000              null              null              null              null  
a_024f_1_drn_lum                  null         nopl_comm              null              null              null              null              null              null         mw24_1000              null              null              null              null  
a_024f_2_drn_lum                  null         nopl_comm              null              null              null              null              null              null         mw24_1000              null              null              null              null  
a_025f_1_drn_lum                  null         nopl_comm              null              null              null              null              null              null         mw24_1000              null              null              null              null  
a_025f_2_drn_lum                  null         nopl_comm              null              null              null              null              null              null         mw24_1000              null              null              null              null  
a_025f_3_drn_lum                  null         nopl_comm              null              null              null              null              null              null         mw24_1000              null              null              null              null  
a_025f_4_drn_lum                  null         nopl_comm              null              null              null              null              null              null         mw24_1000              null              null              null              null  
a_026f_1_drn_lum                  null         nopl_comm              null              null              null              null              null              null         mw24_1000              null              null              null              null  
a_026f_2_drn_lum                  null         nopl_comm              null              null              null              null              null              null         mw24_1000              null              null              null              null  
a_026f_3_drn_lum                  null         nopl_comm              null              null              null              null              null              null         mw24_1000              null              null              null              null  
a_027f_1_drn_lum                  null         nopl_comm              null              null              null              null              null              null         mw24_1000              null              null              null              null  
a_027f_2_drn_lum                  null         nopl_comm              null              null              null              null              null              null         mw24_1000              null              null              null              null  
a_027f_3_drn_lum                  null         nopl_comm              null              null              null              null              null              null         mw24_1000              null              null              null              null  
a_027f_4_drn_lum                  null         nopl_comm              null              null              null              null              null              null         mw24_1000              null              null              null              null  
a_028f_1_drn_lum                  null         nopl_comm              null              null              null              null              null              null         mw24_1000              null              null              null              null  
a_028f_2_drn_lum                  null         nopl_comm              null              null              null              null              null              null         mw24_1000              null              null              null              null  
a_029f_1_drn_lum                  null         nopl_comm              null              null              null              null              null              null         mw24_1000              null              null              null              null  
a_029f_2_drn_lum                  null         nopl_comm              null              null              null              null              null              null         mw24_1000              null              null              null              null  
a_030f_1_drn_lum                  null         nopl_comm              null              null              null              null              null              null         mw24_1000              null              null              null              null  
a_030f_2_drn_lum                  null         nopl_comm              null              null              null              null              null              null         mw24_1000              null              null              null              null  
a_030f_3_drn_lum                  null         nopl_comm              null              null              null              null              null              null         mw24_1000              null              null              null              null  
a_031f_1_drn_lum                  null         nopl_comm              null              null              null              null              null              null         mw24_1000              null              null              null              null  
a_031f_2_drn_lum                  null         nopl_comm              null              null              null              null              null              null         mw24_1000              null              null              null              null  
a_031f_3_drn_lum                  null         nopl_comm              null              null              null              null              null              null         mw24_1000              null              null              null              null  
a_032f_1_drn_lum                  null         nopl_comm              null              null              null              null              null              null         mw24_1000              null              null              null              null  
a_032f_2_drn_lum                  null         nopl_comm              null              null              null              null              null              null         mw24_1000              null              null              null              null  
a_033f_1_drn_lum                  null         nopl_comm              null              null              null              null              null              null         mw24_1000              null              null              null              null  
a_033f_2_drn_lum                  null         nopl_comm              null              null              null              null              null              null         mw24_1000              null              null              null              null  
a_034f_1_drn_lum                  null         nopl_comm              null              null              null              null              null              null         mw24_1000              null              null              null              null  
a_034f_2_drn_lum                  null         nopl_comm              null              null              null              null              null              null         mw24_1000              null              null              null              null  
a_035f_1_drn_lum                  null         nopl_comm              null              null              null              null              null              null         mw24_1000              null              null              null              null  
a_035f_2_drn_lum                  null         nopl_comm              null              null              null              null              null              null         mw24_1000              null              null              null              null  
a_036f_1_drn_lum                  null         nopl_comm              null              null              null              null              null              null         mw24_1000              null              null              null              null  
a_037f_1_drn_lum                  null         nopl_comm              null              null              null              null              null              null         mw24_1000              null              null              null              null  
a_037f_2_drn_lum                  null         nopl_comm              null              null              null              null              null              null         mw24_1000              null              null              null              null  
a_037f_3_drn_lum                  null         nopl_comm              null              null              null              null              null              null         mw24_1000              null              null              null              null  