ls_unit.def: written by SWAT+ editor v2.1.0 on 2023-05-30 10:39 for SWAT+ rev.60.5.4
6206
      id              name          area  elem_tot  elements  
       1           rtu0001       0.22164         1         1  
       2           rtu0002       0.32427         1         2  
       3           rtu0003       0.14994         1         3  
       4           rtu0004       0.07073         1         4  
       5           rtu0005       0.03613         1         5  
       6           rtu0006       1.26859         1         6  
       7           rtu0007       0.02364         1         7  
       8           rtu0008       0.19944         1         8  
       9           rtu0009       4.56611         1         9  
      10           rtu0010       4.72825         1        10  
      11           rtu0011       2.39774         1        11  
      12           rtu0012       2.00818         1        12  
      13           rtu0013       5.69548         1        13  
      14           rtu0014       2.95120         1        14  
      15           rtu0015       0.13594         1        15  
      16           rtu0016       0.11071         1        16  
      17           rtu0017       0.00537         1        17  
      18           rtu0018       0.16041         1        18  
      19           rtu0019       0.08129         1        19  
      20           rtu0020       0.17814         1        20  
      21           rtu0021       0.35253         1        21  
      22           rtu0022       0.20476         1        22  
      23           rtu0023       0.04493         1        23  
      24           rtu0024       0.09199         1        24  
      25           rtu0025       0.12596         1        25  
      26           rtu0026       0.12884         1        26  
      27           rtu0027       0.07288         1        27  
      28           rtu0028       0.04536         1        28  
      29           rtu0029       0.03039         1        29  
      30           rtu0030       0.04356         1        30  
      31           rtu0031       0.01621         1        31  
      32           rtu0032       0.08047         1        32  
      33           rtu0033       0.05257         1        33  
      34           rtu0034       0.06158         1        34  
      35           rtu0035       0.04298         1        35  
      36           rtu0036       0.06574         1        36  
      37           rtu0037       0.11045         1        37  
      38           rtu0038       0.08689         1        38  
      39           rtu0039       0.11980         1        39  
      40           rtu0040       0.01010         1        40  
      41           rtu0041       0.28332         1        41  
      42           rtu0042       0.03555         1        42  
      43           rtu0043       0.15220         1        43  
      44           rtu0044       0.06010         1        44  
      45           rtu0045       0.13811         1        45  
      46           rtu0046       0.02954         1        46  
      47           rtu0047       0.02028         1        47  
      48           rtu0048       0.00728         1        48  
      49           rtu0049       0.00583         1        49  
      50           rtu0050       0.31766         1        50  
      51           rtu0051       0.03666         1        51  
      52           rtu0052       0.15827         1        52  
      53           rtu0053       0.09594         1        53  
      54           rtu0054       0.02450         1        54  
      55           rtu0055       0.21244         1        55  
      56           rtu0056       2.10037         1        56  
      57           rtu0057       0.56736         1        57  
      58           rtu0058       0.86029         1        58  
      59           rtu0059       1.13055         1        59  
      60           rtu0060       0.00640         1        60  
      61           rtu0061       0.50608         1        61  
      62           rtu0062       2.64587         1        62  
      63           rtu0063       1.09018         1        63  
      64           rtu0064       0.01980         1        64  
      65           rtu0065       0.02803         1        65  
      66           rtu0066       0.02860         1        66  
      67           rtu0067       0.02402         1        67  
      68           rtu0068       0.00624         1        68  
      69           rtu0069       0.09644         1        69  
      70           rtu0070       0.03699         1        70  
      71           rtu0071       0.14348         1        71  
      72           rtu0072       0.50770         1        72  
      73           rtu0073       0.23723         1        73  
      74           rtu0074       0.89396         1        74  
      75           rtu0075       0.31794         1        75  
      76           rtu0076       0.21884         1        76  
      77           rtu0077       0.00954         1        77  
      78           rtu0078       0.01930         1        78  
      79           rtu0079       0.50460         1        79  
      80           rtu0080       1.26677         1        80  
      81           rtu0081       0.03593         1        81  
      82           rtu0082      21.77502         1        82  
      83           rtu0083       2.83006         1        83  
      84           rtu0084       2.85858         1        84  
      85           rtu0085       0.04621         1        85  
      86           rtu0086       7.45905         1        86  
      87           rtu0087       0.18085         1        87  
      88           rtu0088       7.06988         1        88  
      89           rtu0089       0.00988         1        89  
      90           rtu0090      14.28861         1        90  
      91           rtu0091       0.07380         1        91  
      92           rtu0092       0.22398         1        92  
      93           rtu0093       0.08971         1        93  
      94           rtu0094       0.12355         1        94  
      95           rtu0095       0.01170         1        95  
      96           rtu0096       0.03156         1        96  
      97           rtu0097       0.10564         1        97  
      98           rtu0098       0.12141         1        98  
      99           rtu0099       0.04352         1        99  
     100           rtu0100       0.03645         1       100  
     101           rtu0101       0.02465         1       101  
     102           rtu0102       0.06973         1       102  
     103           rtu0103       0.05389         1       103  
     104           rtu0104       0.04789         1       104  
     105           rtu0105       0.44228         1       105  
     106           rtu0106       0.04172         1       106  
     107           rtu0107       0.03348         1       107  
     108           rtu0108       0.02186         1       108  
     109           rtu0109       0.03289         1       109  
     110           rtu0110       0.03618         1       110  
     111           rtu0111       0.03476         1       111  
     112           rtu0112       0.04608         1       112  
     113           rtu0113       0.02326         1       113  
     114           rtu0114       0.04297         1       114  
     115           rtu0115       0.02937         1       115  
     116           rtu0116       0.03102         1       116  
     117           rtu0117       0.04706         1       117  
     118           rtu0118       0.05990         1       118  
     119           rtu0119       0.04163         1       119  
     120           rtu0120       0.08557         1       120  
     121           rtu0121       0.06536         1       121  
     122           rtu0122       0.06045         1       122  
     123           rtu0123       0.05908         1       123  
     124           rtu0124       0.05767         1       124  
     125           rtu0125       0.07125         1       125  
     126           rtu0126       0.06551         1       126  
     127           rtu0127       0.01422         1       127  
     128           rtu0128       0.03651         1       128  
     129           rtu0129       0.02709         1       129  
     130           rtu0130       0.04899         1       130  
     131           rtu0131       0.03932         1       131  
     132           rtu0132       0.02698         1       132  
     133           rtu0133       0.03877         1       133  
     134           rtu0134       0.04408         1       134  
     135           rtu0135       0.03502         1       135  
     136           rtu0136       0.04922         1       136  
     137           rtu0137       0.07357         1       137  
     138           rtu0138       0.06665         1       138  
     139           rtu0139       0.04321         1       139  
     140           rtu0140       0.05064         1       140  
     141           rtu0141       0.06695         1       141  
     142           rtu0142       0.01900         1       142  
     143           rtu0143       0.00819         1       143  
     144           rtu0144       0.03208         1       144  
     145           rtu0145       0.01030         1       145  
     146           rtu0146       0.11095         1       146  
     147           rtu0147       0.10217         1       147  
     148           rtu0148       0.06361         1       148  
     149           rtu0149       0.03167         1       149  
     150           rtu0150       0.09743         1       150  
     151           rtu0151       0.08890         1       151  
     152           rtu0152       0.07588         1       152  
     153           rtu0153       0.01297         1       153  
     154           rtu0154       0.03844         1       154  
     155           rtu0155       0.07384         1       155  
     156           rtu0156       0.06702         1       156  
     157           rtu0157       0.05715         1       157  
     158           rtu0158       0.37498         1       158  
     159           rtu0159       0.37433         1       159  
     160           rtu0160       0.16081         1       160  
     161           rtu0161       0.09158         1       161  
     162           rtu0162       0.09643         1       162  
     163           rtu0163       0.08366         1       163  
     164           rtu0164       0.06181         1       164  
     165           rtu0165       0.03951         1       165  
     166           rtu0166       0.02560         1       166  
     167           rtu0167       0.00656         1       167  
     168           rtu0168       0.34342         1       168  
     169           rtu0169       0.08562         1       169  
     170           rtu0170       0.03629         1       170  
     171           rtu0171       0.38857         1       171  
     172           rtu0172       0.01129         1       172  
     173           rtu0173       0.02180         1       173  
     174           rtu0174       0.03292         1       174  
     175           rtu0175       0.00563         1       175  
     176           rtu0176       0.01845         1       176  
     177           rtu0177       0.47656         1       177  
     178           rtu0178       1.85695         1       178  
     179           rtu0179       0.14358         1       179  
     180           rtu0180       1.01258         1       180  
     181           rtu0181       0.23018         1       181  
     182           rtu0182       0.07521         1       182  
     183           rtu0183       0.20319         1       183  
     184           rtu0184       0.08294         1       184  
     185           rtu0185       0.09538         1       185  
     186           rtu0186       0.48129         1       186  
     187           rtu0187       0.17401         1       187  
     188           rtu0188       0.14257         1       188  
     189           rtu0189       0.18737         1       189  
     190           rtu0190       0.85078         1       190  
     191           rtu0191       0.10807         1       191  
     192           rtu0192       0.04986         1       192  
     193           rtu0193       0.01492         1       193  
     194           rtu0194       0.00843         1       194  
     195           rtu0195       0.01303         1       195  
     196           rtu0196       0.01775         1       196  
     197           rtu0197       0.09988         1       197  
     198           rtu0198       0.01229         1       198  
     199           rtu0199       0.01085         1       199  
     200           rtu0200       0.02407         1       200  
     201           rtu0201       0.02160         1       201  
     202           rtu0202       0.01148         1       202  
     203           rtu0203       0.00794         1       203  
     204           rtu0204       0.03936         1       204  
     205           rtu0205       0.01969         1       205  
     206           rtu0206       0.44115         1       206  
     207           rtu0207       1.12098         1       207  
     208           rtu0208       0.15422         1       208  
     209           rtu0209       0.10088         1       209  
     210           rtu0210       2.68665         1       210  
     211           rtu0211       0.00831         1       211  
     212           rtu0212       0.76602         1       212  
     213           rtu0213       0.02027         1       213  
     214           rtu0214       0.01338         1       214  
     215           rtu0215       0.76750         1       215  
     216           rtu0216       0.22059         1       216  
     217           rtu0217       0.05782         1       217  
     218           rtu0218       0.14563         1       218  
     219           rtu0219       0.81771         1       219  
     220           rtu0220       1.69337         1       220  
     221           rtu0221       1.34389         1       221  
     222           rtu0222       0.05276         1       222  
     223           rtu0223       0.03697         1       223  
     224           rtu0224       0.05164         1       224  
     225           rtu0225       0.05713         1       225  
     226           rtu0226       0.02949         1       226  
     227           rtu0227       0.03834         1       227  
     228           rtu0228       0.05150         1       228  
     229           rtu0229       0.00808         1       229  
     230           rtu0230       0.04407         1       230  
     231           rtu0231       0.05917         1       231  
     232           rtu0232       0.01879         1       232  
     233           rtu0233       0.05707         1       233  
     234           rtu0234       0.29252         1       234  
     235           rtu0235       0.02271         1       235  
     236           rtu0236       0.06865         1       236  
     237           rtu0237       0.05092         1       237  
     238           rtu0238       0.11366         1       238  
     239           rtu0239       0.79209         1       239  
     240           rtu0240       0.05872         1       240  
     241           rtu0241       0.00398         1       241  
     242           rtu0242       0.13686         1       242  
     243           rtu0243       0.03456         1       243  
     244           rtu0244       0.23174         1       244  
     245           rtu0245       4.64214         1       245  
     246           rtu0246       0.00587         1       246  
     247           rtu0247       0.02005         1       247  
     248           rtu0248       0.10972         1       248  
     249           rtu0249       0.17823         1       249  
     250           rtu0250       0.01183         1       250  
     251           rtu0251       0.13573         1       251  
     252           rtu0252       0.11618         1       252  
     253           rtu0253       0.51256         1       253  
     254           rtu0254       0.07532         1       254  
     255           rtu0255       0.01431         1       255  
     256           rtu0256       0.01545         1       256  
     257           rtu0257       0.11462         1       257  
     258           rtu0258       0.12395         1       258  
     259           rtu0259       0.07349         1       259  
     260           rtu0260       0.06339         1       260  
     261           rtu0261       0.80111         1       261  
     262           rtu0262       0.14839         1       262  
     263           rtu0263       3.91288         1       263  
     264           rtu0264       4.36362         1       264  
     265           rtu0265       0.02719         1       265  
     266           rtu0266       0.03090         1       266  
     267           rtu0267       0.11048         1       267  
     268           rtu0268       0.05050         1       268  
     269           rtu0269       0.06227         1       269  
     270           rtu0270       0.29276         1       270  
     271           rtu0271       0.15517         1       271  
     272           rtu0272       0.03313         1       272  
     273           rtu0273       0.20627         1       273  
     274           rtu0274       0.07582         1       274  
     275           rtu0275       0.04424         1       275  
     276           rtu0276       0.02115         1       276  
     277           rtu0277       0.28140         1       277  
     278           rtu0278       0.05811         1       278  
     279           rtu0279       0.54810         1       279  
     280           rtu0280       0.37442         1       280  
     281           rtu0281       0.04294         1       281  
     282           rtu0282       0.01777         1       282  
     283           rtu0283       0.02543         1       283  
     284           rtu0284       0.03141         1       284  
     285           rtu0285       0.32908         1       285  
     286           rtu0286       0.08832         1       286  
     287           rtu0287       0.03047         1       287  
     288           rtu0288       0.06551         1       288  
     289           rtu0289       0.08478         1       289  
     290           rtu0290       0.09206         1       290  
     291           rtu0291       0.01037         1       291  
     292           rtu0292       0.05168         1       292  
     293           rtu0293       0.10079         1       293  
     294           rtu0294       0.03399         1       294  
     295           rtu0295       0.34086         1       295  
     296           rtu0296       0.01778         1       296  
     297           rtu0297       0.61723         1       297  
     298           rtu0298       0.06859         1       298  
     299           rtu0299       0.32414         1       299  
     300           rtu0300       0.12092         1       300  
     301           rtu0301       0.02863         1       301  
     302           rtu0302       0.22481         1       302  
     303           rtu0303       0.23334         1       303  
     304           rtu0304       1.22681         1       304  
     305           rtu0305       1.33594         1       305  
     306           rtu0306       0.30721         1       306  
     307           rtu0307       0.38912         1       307  
     308           rtu0308       0.23307         1       308  
     309           rtu0309       0.59707         1       309  
     310           rtu0310       0.62806         1       310  
     311           rtu0311       1.10228         1       311  
     312           rtu0312       1.35702         1       312  
     313           rtu0313       0.46508         1       313  
     314           rtu0314       2.07277         1       314  
     315           rtu0315       0.70242         1       315  
     316           rtu0316       7.06608         1       316  
     317           rtu0317       1.10454         1       317  
     318           rtu0318       0.36436         1       318  
     319           rtu0319       0.15842         1       319  
     320           rtu0320      12.62758         1       320  
     321           rtu0321      17.00356         1       321  
     322           rtu0322       0.61520         1       322  
     323           rtu0323       3.85531         1       323  
     324           rtu0324       1.04009         1       324  
     325           rtu0325       0.01640         1       325  
     326           rtu0326       0.24067         1       326  
     327           rtu0327       1.03447         1       327  
     328           rtu0328       1.14853         1       328  
     329           rtu0329       0.68049         1       329  
     330           rtu0330       6.13758         1       330  
     331           rtu0331       1.42152         1       331  
     332           rtu0332       0.41426         1       332  
     333           rtu0333       0.06725         1       333  
     334           rtu0334       0.04925         1       334  
     335           rtu0335       0.05836         1       335  
     336           rtu0336      10.41217         1       336  
     337           rtu0337       0.02357         1       337  
     338           rtu0338       0.19911         1       338  
     339           rtu0339       0.25486         1       339  
     340           rtu0340       0.24019         1       340  
     341           rtu0341       0.16167         1       341  
     342           rtu0342       0.02605         1       342  
     343           rtu0343       0.01786         1       343  
     344           rtu0344       0.07908         1       344  
     345           rtu0345       0.05883         1       345  
     346           rtu0346       0.16495         1       346  
     347           rtu0347       0.00459         1       347  
     348           rtu0348       0.00917         1       348  
     349           rtu0349       0.08515         1       349  
     350           rtu0350       0.06442         1       350  
     351           rtu0351       1.01632         1       351  
     352           rtu0352       1.27472         1       352  
     353           rtu0353       0.35751         1       353  
     354           rtu0354       0.02036         1       354  
     355           rtu0355       0.18022         1       355  
     356           rtu0356       0.34044         1       356  
     357           rtu0357       0.31873         1       357  
     358           rtu0358       0.05814         1       358  
     359           rtu0359       0.02130         1       359  
     360           rtu0360       0.05275         1       360  
     361           rtu0361       0.04037         1       361  
     362           rtu0362       0.04084         1       362  
     363           rtu0363       0.07716         1       363  
     364           rtu0364       0.02034         1       364  
     365           rtu0365       0.01825         1       365  
     366           rtu0366       0.01220         1       366  
     367           rtu0367       0.01325         1       367  
     368           rtu0368       0.01602         1       368  
     369           rtu0369       6.50627         1       369  
     370           rtu0370       0.09570         1       370  
     371           rtu0371       0.01054         1       371  
     372           rtu0372       0.07306         1       372  
     373           rtu0373       0.01788         1       373  
     374           rtu0374       0.02990         1       374  
     375           rtu0375       0.09399         1       375  
     376           rtu0376       0.19725         1       376  
     377           rtu0377       0.08044         1       377  
     378           rtu0378       0.06574         1       378  
     379           rtu0379       0.04291         1       379  
     380           rtu0380       0.00750         1       380  
     381           rtu0381       0.00482         1       381  
     382           rtu0382       0.00876         1       382  
     383           rtu0383       0.05415         1       383  
     384           rtu0384       0.06922         1       384  
     385           rtu0385       0.07565         1       385  
     386           rtu0386       0.01732         1       386  
     387           rtu0387       0.11280         1       387  
     388           rtu0388       0.02268         1       388  
     389           rtu0389       0.02110         1       389  
     390           rtu0390       0.06133         1       390  
     391           rtu0391       0.01002         1       391  
     392           rtu0392       0.02366         1       392  
     393           rtu0393       0.93600         1       393  
     394           rtu0394       0.44509         1       394  
     395           rtu0395       0.08299         1       395  
     396           rtu0396       0.32172         1       396  
     397           rtu0397       0.13335         1       397  
     398           rtu0398       0.03191         1       398  
     399           rtu0399       0.01263         1       399  
     400           rtu0400       0.03032         1       400  
     401           rtu0401       0.73446         1       401  
     402           rtu0402       0.04123         1       402  
     403           rtu0403       0.04641         1       403  
     404           rtu0404       0.44349         1       404  
     405           rtu0405       0.42247         1       405  
     406           rtu0406       0.08695         1       406  
     407           rtu0407       3.79232         1       407  
     408           rtu0408       2.89425         1       408  
     409           rtu0409       1.13667         1       409  
     410           rtu0410       0.06182         1       410  
     411           rtu0411       0.07109         1       411  
     412           rtu0412       0.03369         1       412  
     413           rtu0413       0.06933         1       413  
     414           rtu0414       0.01781         1       414  
     415           rtu0415       0.14514         1       415  
     416           rtu0416       0.04775         1       416  
     417           rtu0417       0.05043         1       417  
     418           rtu0418       0.03071         1       418  
     419           rtu0419       0.13424         1       419  
     420           rtu0420       0.00923         1       420  
     421           rtu0421       0.04362         1       421  
     422           rtu0422       0.07902         1       422  
     423           rtu0423       0.04897         1       423  
     424           rtu0424       0.02988         1       424  
     425           rtu0425       0.13038         1       425  
     426           rtu0426       0.02660         1       426  
     427           rtu0427       0.08805         1       427  
     428           rtu0428       0.01713         1       428  
     429           rtu0429       0.05052         1       429  
     430           rtu0430       0.04601         1       430  
     431           rtu0431       0.02925         1       431  
     432           rtu0432       0.00875         1       432  
     433           rtu0433       0.06659         1       433  
     434           rtu0434       0.05469         1       434  
     435           rtu0435       0.14874         1       435  
     436           rtu0436       0.32089         1       436  
     437           rtu0437       0.31224         1       437  
     438           rtu0438       1.64807         1       438  
     439           rtu0439       0.38338         1       439  
     440           rtu0440       0.04378         1       440  
     441           rtu0441       0.07932         1       441  
     442           rtu0442       0.07341         1       442  
     443           rtu0443       0.45205         1       443  
     444           rtu0444       0.24447         1       444  
     445           rtu0445       0.71980         1       445  
     446           rtu0446       0.67054         1       446  
     447           rtu0447       0.53895         1       447  
     448           rtu0448       8.52142         1       448  
     449           rtu0449       3.95743         1       449  
     450           rtu0450       0.66481         1       450  
     451           rtu0451       0.11299         1       451  
     452           rtu0452       0.02664         1       452  
     453           rtu0453       0.01357         1       453  
     454           rtu0454       0.01246         1       454  
     455           rtu0455       0.07357         1       455  
     456           rtu0456       0.04887         1       456  
     457           rtu0457       0.17363         1       457  
     458           rtu0458       0.39314         1       458  
     459           rtu0459       0.06007         1       459  
     460           rtu0460       0.29963         1       460  
     461           rtu0461       0.28133         1       461  
     462           rtu0462       0.21769         1       462  
     463           rtu0463       0.20012         1       463  
     464           rtu0464       0.05655         1       464  
     465           rtu0465       0.37724         1       465  
     466           rtu0466       0.02577         1       466  
     467           rtu0467       1.59745         1       467  
     468           rtu0468       1.99957         1       468  
     469           rtu0469       3.95028         1       469  
     470           rtu0470       1.28521         1       470  
     471           rtu0471      10.27540         1       471  
     472           rtu0472       7.08971         1       472  
     473           rtu0473       0.07147         1       473  