object.cnt: written by SWAT+ editor v2.1.0 on 2023-05-25 15:01 for SWAT+ rev.60.5.4
name                   ls_area      tot_area       obj       hru      lhru       rtu       mfl       aqu       cha       res       rec      exco       dlr       can       pmp       out      lcha     aqu2d       hrd       wro  
optaincs10          4976.38116    4976.38116     12887      6206         0      6206         0         1         0        58         0         0         0         0         0         0       416         0         0         0  
