rout_unit.rtu: written by SWAT+ editor v2.1.0 on 2023-05-30 10:39 for SWAT+ rev.60.5.4
      id              name            define               dlr              topo             field  
       1           rtu0001           rtu0001              null       toportu0001           fld0001  
       2           rtu0002           rtu0002              null       toportu0002           fld0002  
       3           rtu0003           rtu0003              null       toportu0003           fld0003  
       4           rtu0004           rtu0004              null       toportu0004           fld0004  
       5           rtu0005           rtu0005              null       toportu0005           fld0005  
       6           rtu0006           rtu0006              null       toportu0006           fld0006  
       7           rtu0007           rtu0007              null       toportu0007           fld0007  
       8           rtu0008           rtu0008              null       toportu0008           fld0008  
       9           rtu0009           rtu0009              null       toportu0009           fld0009  
      10           rtu0010           rtu0010              null       toportu0010           fld0010  
      11           rtu0011           rtu0011              null       toportu0011           fld0011  
      12           rtu0012           rtu0012              null       toportu0012           fld0012  
      13           rtu0013           rtu0013              null       toportu0013           fld0013  
      14           rtu0014           rtu0014              null       toportu0014           fld0014  
      15           rtu0015           rtu0015              null       toportu0015           fld0015  
      16           rtu0016           rtu0016              null       toportu0016           fld0016  
      17           rtu0017           rtu0017              null       toportu0017           fld0017  
      18           rtu0018           rtu0018              null       toportu0018           fld0018  
      19           rtu0019           rtu0019              null       toportu0019           fld0019  
      20           rtu0020           rtu0020              null       toportu0020           fld0020  
      21           rtu0021           rtu0021              null       toportu0021           fld0021  
      22           rtu0022           rtu0022              null       toportu0022           fld0022  
      23           rtu0023           rtu0023              null       toportu0023           fld0023  
      24           rtu0024           rtu0024              null       toportu0024           fld0024  
      25           rtu0025           rtu0025              null       toportu0025           fld0025  
      26           rtu0026           rtu0026              null       toportu0026           fld0026  
      27           rtu0027           rtu0027              null       toportu0027           fld0027  
      28           rtu0028           rtu0028              null       toportu0028           fld0028  
      29           rtu0029           rtu0029              null       toportu0029           fld0029  
      30           rtu0030           rtu0030              null       toportu0030           fld0030  
      31           rtu0031           rtu0031              null       toportu0031           fld0031  
      32           rtu0032           rtu0032              null       toportu0032           fld0032  
      33           rtu0033           rtu0033              null       toportu0033           fld0033  
      34           rtu0034           rtu0034              null       toportu0034           fld0034  
      35           rtu0035           rtu0035              null       toportu0035           fld0035  
      36           rtu0036           rtu0036              null       toportu0036           fld0036  
      37           rtu0037           rtu0037              null       toportu0037           fld0037  
      38           rtu0038           rtu0038              null       toportu0038           fld0038  
      39           rtu0039           rtu0039              null       toportu0039           fld0039  
      40           rtu0040           rtu0040              null       toportu0040           fld0040  
      41           rtu0041           rtu0041              null       toportu0041           fld0041  
      42           rtu0042           rtu0042              null       toportu0042           fld0042  
      43           rtu0043           rtu0043              null       toportu0043           fld0043  
      44           rtu0044           rtu0044              null       toportu0044           fld0044  
      45           rtu0045           rtu0045              null       toportu0045           fld0045  
      46           rtu0046           rtu0046              null       toportu0046           fld0046  
      47           rtu0047           rtu0047              null       toportu0047           fld0047  
      48           rtu0048           rtu0048              null       toportu0048           fld0048  
      49           rtu0049           rtu0049              null       toportu0049           fld0049  
      50           rtu0050           rtu0050              null       toportu0050           fld0050  
      51           rtu0051           rtu0051              null       toportu0051           fld0051  
      52           rtu0052           rtu0052              null       toportu0052           fld0052  
      53           rtu0053           rtu0053              null       toportu0053           fld0053  
      54           rtu0054           rtu0054              null       toportu0054           fld0054  
      55           rtu0055           rtu0055              null       toportu0055           fld0055  
      56           rtu0056           rtu0056              null       toportu0056           fld0056  
      57           rtu0057           rtu0057              null       toportu0057           fld0057  
      58           rtu0058           rtu0058              null       toportu0058           fld0058  
      59           rtu0059           rtu0059              null       toportu0059           fld0059  
      60           rtu0060           rtu0060              null       toportu0060           fld0060  
      61           rtu0061           rtu0061              null       toportu0061           fld0061  
      62           rtu0062           rtu0062              null       toportu0062           fld0062  
      63           rtu0063           rtu0063              null       toportu0063           fld0063  
      64           rtu0064           rtu0064              null       toportu0064           fld0064  
      65           rtu0065           rtu0065              null       toportu0065           fld0065  
      66           rtu0066           rtu0066              null       toportu0066           fld0066  
      67           rtu0067           rtu0067              null       toportu0067           fld0067  
      68           rtu0068           rtu0068              null       toportu0068           fld0068  
      69           rtu0069           rtu0069              null       toportu0069           fld0069  
      70           rtu0070           rtu0070              null       toportu0070           fld0070  
      71           rtu0071           rtu0071              null       toportu0071           fld0071  
      72           rtu0072           rtu0072              null       toportu0072           fld0072  
      73           rtu0073           rtu0073              null       toportu0073           fld0073  
      74           rtu0074           rtu0074              null       toportu0074           fld0074  
      75           rtu0075           rtu0075              null       toportu0075           fld0075  
      76           rtu0076           rtu0076              null       toportu0076           fld0076  
      77           rtu0077           rtu0077              null       toportu0077           fld0077  
      78           rtu0078           rtu0078              null       toportu0078           fld0078  
      79           rtu0079           rtu0079              null       toportu0079           fld0079  
      80           rtu0080           rtu0080              null       toportu0080           fld0080  
      81           rtu0081           rtu0081              null       toportu0081           fld0081  
      82           rtu0082           rtu0082              null       toportu0082           fld0082  
      83           rtu0083           rtu0083              null       toportu0083           fld0083  
      84           rtu0084           rtu0084              null       toportu0084           fld0084  
      85           rtu0085           rtu0085              null       toportu0085           fld0085  
      86           rtu0086           rtu0086              null       toportu0086           fld0086  
      87           rtu0087           rtu0087              null       toportu0087           fld0087  
      88           rtu0088           rtu0088              null       toportu0088           fld0088  
      89           rtu0089           rtu0089              null       toportu0089           fld0089  
      90           rtu0090           rtu0090              null       toportu0090           fld0090  
      91           rtu0091           rtu0091              null       toportu0091           fld0091  
      92           rtu0092           rtu0092              null       toportu0092           fld0092  
      93           rtu0093           rtu0093              null       toportu0093           fld0093  
      94           rtu0094           rtu0094              null       toportu0094           fld0094  
      95           rtu0095           rtu0095              null       toportu0095           fld0095  
      96           rtu0096           rtu0096              null       toportu0096           fld0096  
      97           rtu0097           rtu0097              null       toportu0097           fld0097  
      98           rtu0098           rtu0098              null       toportu0098           fld0098  
      99           rtu0099           rtu0099              null       toportu0099           fld0099  
     100           rtu0100           rtu0100              null       toportu0100           fld0100  
     101           rtu0101           rtu0101              null       toportu0101           fld0101  
     102           rtu0102           rtu0102              null       toportu0102           fld0102  
     103           rtu0103           rtu0103              null       toportu0103           fld0103  
     104           rtu0104           rtu0104              null       toportu0104           fld0104  
     105           rtu0105           rtu0105              null       toportu0105           fld0105  
     106           rtu0106           rtu0106              null       toportu0106           fld0106  
     107           rtu0107           rtu0107              null       toportu0107           fld0107  
     108           rtu0108           rtu0108              null       toportu0108           fld0108  
     109           rtu0109           rtu0109              null       toportu0109           fld0109  
     110           rtu0110           rtu0110              null       toportu0110           fld0110  
     111           rtu0111           rtu0111              null       toportu0111           fld0111  
     112           rtu0112           rtu0112              null       toportu0112           fld0112  
     113           rtu0113           rtu0113              null       toportu0113           fld0113  
     114           rtu0114           rtu0114              null       toportu0114           fld0114  
     115           rtu0115           rtu0115              null       toportu0115           fld0115  
     116           rtu0116           rtu0116              null       toportu0116           fld0116  
     117           rtu0117           rtu0117              null       toportu0117           fld0117  
     118           rtu0118           rtu0118              null       toportu0118           fld0118  
     119           rtu0119           rtu0119              null       toportu0119           fld0119  
     120           rtu0120           rtu0120              null       toportu0120           fld0120  
     121           rtu0121           rtu0121              null       toportu0121           fld0121  
     122           rtu0122           rtu0122              null       toportu0122           fld0122  
     123           rtu0123           rtu0123              null       toportu0123           fld0123  
     124           rtu0124           rtu0124              null       toportu0124           fld0124  
     125           rtu0125           rtu0125              null       toportu0125           fld0125  
     126           rtu0126           rtu0126              null       toportu0126           fld0126  
     127           rtu0127           rtu0127              null       toportu0127           fld0127  
     128           rtu0128           rtu0128              null       toportu0128           fld0128  
     129           rtu0129           rtu0129              null       toportu0129           fld0129  
     130           rtu0130           rtu0130              null       toportu0130           fld0130  
     131           rtu0131           rtu0131              null       toportu0131           fld0131  
     132           rtu0132           rtu0132              null       toportu0132           fld0132  
     133           rtu0133           rtu0133              null       toportu0133           fld0133  
     134           rtu0134           rtu0134              null       toportu0134           fld0134  
     135           rtu0135           rtu0135              null       toportu0135           fld0135  
     136           rtu0136           rtu0136              null       toportu0136           fld0136  
     137           rtu0137           rtu0137              null       toportu0137           fld0137  
     138           rtu0138           rtu0138              null       toportu0138           fld0138  
     139           rtu0139           rtu0139              null       toportu0139           fld0139  
     140           rtu0140           rtu0140              null       toportu0140           fld0140  
     141           rtu0141           rtu0141              null       toportu0141           fld0141  
     142           rtu0142           rtu0142              null       toportu0142           fld0142  
     143           rtu0143           rtu0143              null       toportu0143           fld0143  
     144           rtu0144           rtu0144              null       toportu0144           fld0144  
     145           rtu0145           rtu0145              null       toportu0145           fld0145  
     146           rtu0146           rtu0146              null       toportu0146           fld0146  
     147           rtu0147           rtu0147              null       toportu0147           fld0147  
     148           rtu0148           rtu0148              null       toportu0148           fld0148  
     149           rtu0149           rtu0149              null       toportu0149           fld0149  
     150           rtu0150           rtu0150              null       toportu0150           fld0150  
     151           rtu0151           rtu0151              null       toportu0151           fld0151  
     152           rtu0152           rtu0152              null       toportu0152           fld0152  
     153           rtu0153           rtu0153              null       toportu0153           fld0153  
     154           rtu0154           rtu0154              null       toportu0154           fld0154  
     155           rtu0155           rtu0155              null       toportu0155           fld0155  
     156           rtu0156           rtu0156              null       toportu0156           fld0156  
     157           rtu0157           rtu0157              null       toportu0157           fld0157  
     158           rtu0158           rtu0158              null       toportu0158           fld0158  
     159           rtu0159           rtu0159              null       toportu0159           fld0159  
     160           rtu0160           rtu0160              null       toportu0160           fld0160  
     161           rtu0161           rtu0161              null       toportu0161           fld0161  
     162           rtu0162           rtu0162              null       toportu0162           fld0162  
     163           rtu0163           rtu0163              null       toportu0163           fld0163  
     164           rtu0164           rtu0164              null       toportu0164           fld0164  
     165           rtu0165           rtu0165              null       toportu0165           fld0165  
     166           rtu0166           rtu0166              null       toportu0166           fld0166  
     167           rtu0167           rtu0167              null       toportu0167           fld0167  
     168           rtu0168           rtu0168              null       toportu0168           fld0168  
     169           rtu0169           rtu0169              null       toportu0169           fld0169  
     170           rtu0170           rtu0170              null       toportu0170           fld0170  
     171           rtu0171           rtu0171              null       toportu0171           fld0171  
     172           rtu0172           rtu0172              null       toportu0172           fld0172  
     173           rtu0173           rtu0173              null       toportu0173           fld0173  
     174           rtu0174           rtu0174              null       toportu0174           fld0174  
     175           rtu0175           rtu0175              null       toportu0175           fld0175  
     176           rtu0176           rtu0176              null       toportu0176           fld0176  
     177           rtu0177           rtu0177              null       toportu0177           fld0177  
     178           rtu0178           rtu0178              null       toportu0178           fld0178  
     179           rtu0179           rtu0179              null       toportu0179           fld0179  
     180           rtu0180           rtu0180              null       toportu0180           fld0180  
     181           rtu0181           rtu0181              null       toportu0181           fld0181  
     182           rtu0182           rtu0182              null       toportu0182           fld0182  
     183           rtu0183           rtu0183              null       toportu0183           fld0183  
     184           rtu0184           rtu0184              null       toportu0184           fld0184  
     185           rtu0185           rtu0185              null       toportu0185           fld0185  
     186           rtu0186           rtu0186              null       toportu0186           fld0186  
     187           rtu0187           rtu0187              null       toportu0187           fld0187  
     188           rtu0188           rtu0188              null       toportu0188           fld0188  
     189           rtu0189           rtu0189              null       toportu0189           fld0189  
     190           rtu0190           rtu0190              null       toportu0190           fld0190  
     191           rtu0191           rtu0191              null       toportu0191           fld0191  
     192           rtu0192           rtu0192              null       toportu0192           fld0192  
     193           rtu0193           rtu0193              null       toportu0193           fld0193  
     194           rtu0194           rtu0194              null       toportu0194           fld0194  
     195           rtu0195           rtu0195              null       toportu0195           fld0195  
     196           rtu0196           rtu0196              null       toportu0196           fld0196  
     197           rtu0197           rtu0197              null       toportu0197           fld0197  
     198           rtu0198           rtu0198              null       toportu0198           fld0198  
     199           rtu0199           rtu0199              null       toportu0199           fld0199  
     200           rtu0200           rtu0200              null       toportu0200           fld0200  
     201           rtu0201           rtu0201              null       toportu0201           fld0201  
     202           rtu0202           rtu0202              null       toportu0202           fld0202  
     203           rtu0203           rtu0203              null       toportu0203           fld0203  
     204           rtu0204           rtu0204              null       toportu0204           fld0204  
     205           rtu0205           rtu0205              null       toportu0205           fld0205  
     206           rtu0206           rtu0206              null       toportu0206           fld0206  
     207           rtu0207           rtu0207              null       toportu0207           fld0207  
     208           rtu0208           rtu0208              null       toportu0208           fld0208  
     209           rtu0209           rtu0209              null       toportu0209           fld0209  
     210           rtu0210           rtu0210              null       toportu0210           fld0210  
     211           rtu0211           rtu0211              null       toportu0211           fld0211  
     212           rtu0212           rtu0212              null       toportu0212           fld0212  
     213           rtu0213           rtu0213              null       toportu0213           fld0213  
     214           rtu0214           rtu0214              null       toportu0214           fld0214  
     215           rtu0215           rtu0215              null       toportu0215           fld0215  
     216           rtu0216           rtu0216              null       toportu0216           fld0216  
     217           rtu0217           rtu0217              null       toportu0217           fld0217  
     218           rtu0218           rtu0218              null       toportu0218           fld0218  
     219           rtu0219           rtu0219              null       toportu0219           fld0219  
     220           rtu0220           rtu0220              null       toportu0220           fld0220  
     221           rtu0221           rtu0221              null       toportu0221           fld0221  
     222           rtu0222           rtu0222              null       toportu0222           fld0222  
     223           rtu0223           rtu0223              null       toportu0223           fld0223  
     224           rtu0224           rtu0224              null       toportu0224           fld0224  
     225           rtu0225           rtu0225              null       toportu0225           fld0225  
     226           rtu0226           rtu0226              null       toportu0226           fld0226  
     227           rtu0227           rtu0227              null       toportu0227           fld0227  
     228           rtu0228           rtu0228              null       toportu0228           fld0228  
     229           rtu0229           rtu0229              null       toportu0229           fld0229  
     230           rtu0230           rtu0230              null       toportu0230           fld0230  
     231           rtu0231           rtu0231              null       toportu0231           fld0231  
     232           rtu0232           rtu0232              null       toportu0232           fld0232  
     233           rtu0233           rtu0233              null       toportu0233           fld0233  
     234           rtu0234           rtu0234              null       toportu0234           fld0234  
     235           rtu0235           rtu0235              null       toportu0235           fld0235  
     236           rtu0236           rtu0236              null       toportu0236           fld0236  
     237           rtu0237           rtu0237              null       toportu0237           fld0237  
     238           rtu0238           rtu0238              null       toportu0238           fld0238  
     239           rtu0239           rtu0239              null       toportu0239           fld0239  
     240           rtu0240           rtu0240              null       toportu0240           fld0240  
     241           rtu0241           rtu0241              null       toportu0241           fld0241  
     242           rtu0242           rtu0242              null       toportu0242           fld0242  
     243           rtu0243           rtu0243              null       toportu0243           fld0243  
     244           rtu0244           rtu0244              null       toportu0244           fld0244  
     245           rtu0245           rtu0245              null       toportu0245           fld0245  
     246           rtu0246           rtu0246              null       toportu0246           fld0246  
     247           rtu0247           rtu0247              null       toportu0247           fld0247  
     248           rtu0248           rtu0248              null       toportu0248           fld0248  
     249           rtu0249           rtu0249              null       toportu0249           fld0249  
     250           rtu0250           rtu0250              null       toportu0250           fld0250  
     251           rtu0251           rtu0251              null       toportu0251           fld0251  
     252           rtu0252           rtu0252              null       toportu0252           fld0252  
     253           rtu0253           rtu0253              null       toportu0253           fld0253  
     254           rtu0254           rtu0254              null       toportu0254           fld0254  
     255           rtu0255           rtu0255              null       toportu0255           fld0255  
     256           rtu0256           rtu0256              null       toportu0256           fld0256  
     257           rtu0257           rtu0257              null       toportu0257           fld0257  
     258           rtu0258           rtu0258              null       toportu0258           fld0258  
     259           rtu0259           rtu0259              null       toportu0259           fld0259  
     260           rtu0260           rtu0260              null       toportu0260           fld0260  
     261           rtu0261           rtu0261              null       toportu0261           fld0261  
     262           rtu0262           rtu0262              null       toportu0262           fld0262  
     263           rtu0263           rtu0263              null       toportu0263           fld0263  
     264           rtu0264           rtu0264              null       toportu0264           fld0264  
     265           rtu0265           rtu0265              null       toportu0265           fld0265  
     266           rtu0266           rtu0266              null       toportu0266           fld0266  
     267           rtu0267           rtu0267              null       toportu0267           fld0267  
     268           rtu0268           rtu0268              null       toportu0268           fld0268  
     269           rtu0269           rtu0269              null       toportu0269           fld0269  
     270           rtu0270           rtu0270              null       toportu0270           fld0270  
     271           rtu0271           rtu0271              null       toportu0271           fld0271  
     272           rtu0272           rtu0272              null       toportu0272           fld0272  
     273           rtu0273           rtu0273              null       toportu0273           fld0273  
     274           rtu0274           rtu0274              null       toportu0274           fld0274  
     275           rtu0275           rtu0275              null       toportu0275           fld0275  
     276           rtu0276           rtu0276              null       toportu0276           fld0276  
     277           rtu0277           rtu0277              null       toportu0277           fld0277  
     278           rtu0278           rtu0278              null       toportu0278           fld0278  
     279           rtu0279           rtu0279              null       toportu0279           fld0279  
     280           rtu0280           rtu0280              null       toportu0280           fld0280  
     281           rtu0281           rtu0281              null       toportu0281           fld0281  
     282           rtu0282           rtu0282              null       toportu0282           fld0282  
     283           rtu0283           rtu0283              null       toportu0283           fld0283  
     284           rtu0284           rtu0284              null       toportu0284           fld0284  
     285           rtu0285           rtu0285              null       toportu0285           fld0285  
     286           rtu0286           rtu0286              null       toportu0286           fld0286  
     287           rtu0287           rtu0287              null       toportu0287           fld0287  
     288           rtu0288           rtu0288              null       toportu0288           fld0288  
     289           rtu0289           rtu0289              null       toportu0289           fld0289  
     290           rtu0290           rtu0290              null       toportu0290           fld0290  
     291           rtu0291           rtu0291              null       toportu0291           fld0291  
     292           rtu0292           rtu0292              null       toportu0292           fld0292  
     293           rtu0293           rtu0293              null       toportu0293           fld0293  
     294           rtu0294           rtu0294              null       toportu0294           fld0294  
     295           rtu0295           rtu0295              null       toportu0295           fld0295  