rout_unit.con: written by SWAT+ editor v2.1.0 on 2023-05-30 10:38 for SWAT+ rev.60.5.4
      id  name                gis_id          area           lat           lon          elev       rtu               wst       cst      ovfl      rule   out_tot       obj_typ    obj_id       hyd_typ          frac  
       1  rtu0001                  0       0.22164      59.70014      10.86981     108.64928         1     s59661n10782e         0         0         0         2            ru        11           tot       1.00000           aqu         1           rhg       1.00000  
       2  rtu0002                  0       0.32427      59.70262      10.87107     119.80377         2     s59661n10782e         0         0         0         2            ru      1625           tot       1.00000           aqu         1           rhg       1.00000  
       3  rtu0003                  0       0.14994      59.70125      10.87110     110.45870         3     s59661n10782e         0         0         0         3            ru        11           tot       0.31920            ru        53           tot       0.68080           aqu         1           rhg       1.00000  
       4  rtu0004                  0       0.07073      59.69979      10.87510     112.03050         4     s59661n10782e         0         0         0         2            ru        13           tot       1.00000           aqu         1           rhg       1.00000  
       5  rtu0005                  0       0.03613      59.70208      10.87172     113.24214         5     s59661n10782e         0         0         0         2            ru         3           tot       1.00000           aqu         1           rhg       1.00000  
       6  rtu0006                  0       1.26859      59.69577      10.87458     112.76345         6     s59661n10782e         0         0         0         4            ru        21           tot       0.53128            ru        22           tot       0.17333            ru      4041           tot       0.29538           aqu         1           rhg       1.00000  
       7  rtu0007                  0       0.02364      59.70196      10.87214     115.28360         7     s59661n10782e         0         0         0         2            ru        10           tot       1.00000           aqu         1           rhg       1.00000  
       8  rtu0008                  0       0.19944      59.70192      10.87046     114.79365         8     s59661n10782e         0         0         0         4            ru      1625           sur       1.00000            ru      1625           lat       1.00000           sdc         1           til       1.00000           aqu         1           rhg       1.00000  
       9  rtu0009                  0       4.56611      59.69981      10.86837     108.43774         9     s59661n10782e         0         0         0         4            ru        56           sur       1.00000            ru        56           lat       1.00000           sdc         1           til       1.00000           aqu         1           rhg       1.00000  
      10  rtu0010                  0       4.72825      59.70175      10.87348     109.55623        10     s59661n10782e         0         0         0         6            ru         3           sur       0.26280            ru         3           lat       0.26280            ru        53           sur       0.73720            ru        53           lat       0.73720           sdc         1           til       1.00000           aqu         1           rhg       1.00000  
      11  rtu0011                  0       2.39774      59.70013      10.87117     105.11624        11     s59661n10782e         0         0         0         4            ru        59           sur       1.00000            ru        59           lat       1.00000           sdc         1           til       1.00000           aqu         1           rhg       1.00000  
      12  rtu0012                  0       2.00818      59.70383      10.87398     114.74165        12     s59661n10782e         0         0         0         4            ru        27           sur       1.00000            ru        27           lat       1.00000           sdc         1           til       1.00000           aqu         1           rhg       1.00000  
      13  rtu0013                  0       5.69548      59.69845      10.87482     109.81018        13     s59661n10782e         0         0         0         8            ru        22           sur       0.15445            ru        22           lat       0.15445            ru        25           sur       0.41526            ru        25           lat       0.41526            ru        61           sur       0.43028            ru        61           lat       0.43028           sdc         1           til       1.00000           aqu         1           rhg       1.00000  
      14  rtu0014                  0       2.95120      59.69773      10.87043     101.80598        14     s59661n10782e         0         0         0         6            ru        55           sur       0.65476            ru        55           lat       0.65476            ru        62           sur       0.34524            ru        62           lat       0.34524           sdc         1           til       1.00000           aqu         1           rhg       1.00000  
      15  rtu0015                  0       0.13594      59.70392      10.87507     114.02283        15     s59661n10782e         0         0         0         4            ru        12           tot       0.18797            ru        34           tot       0.57143            ru      4607           tot       0.24060           aqu         1           rhg       1.00000  
      16  rtu0016                  0       0.11071      59.70220      10.87534     107.76720        16     s59661n10782e         0         0         0         2            ru        27           tot       1.00000           aqu         1           rhg       1.00000  
      17  rtu0017                  0       0.00537      59.70141      10.87563     105.01242        17     s59661n10782e         0         0         0         3            ru        27           tot       0.66667            ru        31           tot       0.33333           aqu         1           rhg       1.00000  
      18  rtu0018                  0       0.16041      59.70048      10.87594     109.38856        18     s59661n10782e         0         0         0         2            ru        13           tot       1.00000           aqu         1           rhg       1.00000  
      19  rtu0019                  0       0.08129      59.69903      10.87613     113.71467        19     s59661n10782e         0         0         0         5            ru        13           tot       0.10345            ru        28           tot       0.26437            ru        30           tot       0.32184            ru      5812           tot       0.31034           aqu         1           rhg       1.00000  
      20  rtu0020                  0       0.17814      59.69727      10.87603     112.31289        20     s59661n10782e         0         0         0         4            ru        13           tot       0.19745            ru        36           tot       0.22930            ru      4522           tot       0.57325           aqu         1           rhg       1.00000  
      21  rtu0021                  0       0.35253      59.69601      10.87335     109.91137        21     s59661n10782e         0         0         0         3            ru      4041           tot       0.29707            ru      4046           tot       0.70293           aqu         1           rhg       1.00000  
      22  rtu0022                  0       0.20476      59.69656      10.87435     110.74169        22     s59661n10782e         0         0         0         2            ru      4040           tot       1.00000           aqu         1           rhg       1.00000  
      23  rtu0023                  0       0.04493      59.69672      10.87586     112.07224        23     s59661n10782e         0         0         0         2            ru        13           tot       1.00000           aqu         1           rhg       1.00000  
      24  rtu0024                  0       0.09199      59.69610      10.87544     113.56611        24     s59661n10782e         0         0         0         2            ru        13           tot       1.00000           aqu         1           rhg       1.00000  
      25  rtu0025                  0       0.12596      59.69803      10.87333     104.22122        25     s59661n10782e         0         0         0         2            ru      4040           tot       1.00000           aqu         1           rhg       1.00000  
      26  rtu0026                  0       0.12884      59.69918      10.87286     102.26248        26     s59661n10782e         0         0         0         2           sdc         1           tot       1.00000           aqu         1           rhg       1.00000  
      27  rtu0027                  0       0.07288      59.70211      10.87527     107.12715        27     s59661n10782e         0         0         0         2            ru        46           tot       1.00000           aqu         1           rhg       1.00000  
      28  rtu0028                  0       0.04536      59.69946      10.87599     113.23867        28     s59661n10782e         0         0         0         2            ru        18           tot       1.00000           aqu         1           rhg       1.00000  
      29  rtu0029                  0       0.03039      59.70437      10.87494     117.04743        29     s59661n10782e         0         0         0         2            ru        12           tot       1.00000           aqu         1           rhg       1.00000  
      30  rtu0030                  0       0.04356      59.69945      10.87617     112.30489        30     s59661n10782e         0         0         0         3            ru        32           tot       0.52041            ru      5812           tot       0.47959           aqu         1           rhg       1.00000  
      31  rtu0031                  0       0.01621      59.70152      10.87570     105.00739        31     s59661n10782e         0         0         0         2            ru        16           tot       1.00000           aqu         1           rhg       1.00000  
      32  rtu0032                  0       0.08047      59.70082      10.87601     108.05380        32     s59661n10782e         0         0         0         2            ru        48           tot       1.00000           aqu         1           rhg       1.00000  
      33  rtu0033                  0       0.05257      59.70228      10.87540     107.98983        33     s59661n10782e         0         0         0         2            ru      4606           tot       1.00000           aqu         1           rhg       1.00000  
      34  rtu0034                  0       0.06158      59.70367      10.87518     111.90419        34     s59661n10782e         0         0         0         2            ru      4606           tot       1.00000           aqu         1           rhg       1.00000  
      35  rtu0035                  0       0.04298      59.70119      10.87690     108.71340        35     s59661n10782e         0         0         0         2            ru        52           tot       1.00000           aqu         1           rhg       1.00000  
      36  rtu0036                  0       0.06574      59.69766      10.87631     112.40316        36     s59661n10782e         0         0         0         2            ru      5818           tot       1.00000           aqu         1           rhg       1.00000  
      37  rtu0037                  0       0.11045      59.70474      10.87748     106.88299        37     s59661n10782e         0         0         0         2           sdc       270           tot       1.00000           aqu         1           rhg       1.00000  
      38  rtu0038                  0       0.08689      59.70412      10.87743     106.33683        38     s59661n10782e         0         0         0         2           sdc         1           tot       1.00000           aqu         1           rhg       1.00000  
      39  rtu0039                  0       0.11980      59.70333      10.87728     105.54819        39     s59661n10782e         0         0         0         2           sdc         1           tot       1.00000           aqu         1           rhg       1.00000  
      40  rtu0040                  0       0.01010      59.70131      10.87569     105.16000        40     s59661n10782e         0         0         0         2           sdc         1           tot       1.00000           aqu         1           rhg       1.00000  
      41  rtu0041                  0       0.28332      59.69803      10.86810     100.07673        41     s59661n10782e         0         0         0         2           sdc         1           tot       1.00000           aqu         1           rhg       1.00000  
      42  rtu0042                  0       0.03555      59.69896      10.87225     101.21453        42     s59661n10782e         0         0         0         2           sdc         1           tot       1.00000           aqu         1           rhg       1.00000  
      43  rtu0043                  0       0.15220      59.69862      10.87103     100.80835        43     s59661n10782e         0         0         0         2           sdc         1           tot       1.00000           aqu         1           rhg       1.00000  
      44  rtu0044                  0       0.06010      59.70078      10.87510     103.00029        44     s59661n10782e         0         0         0         2           sdc         1           tot       1.00000           aqu         1           rhg       1.00000  
      45  rtu0045                  0       0.13811      59.70015      10.87400     102.55063        45     s59661n10782e         0         0         0         2           sdc         1           tot       1.00000           aqu         1           rhg       1.00000  
      46  rtu0046                  0       0.02954      59.70121      10.87552     103.52009        46     s59661n10782e         0         0         0         2           sdc         1           tot       1.00000           aqu         1           rhg       1.00000  
      47  rtu0047                  0       0.02028      59.70142      10.87590     105.18191        47     s59661n10782e         0         0         0         2           sdc         1           tot       1.00000           aqu         1           rhg       1.00000  
      48  rtu0048                  0       0.00728      59.70134      10.87579     104.96823        48     s59661n10782e         0         0         0         2           sdc         1           tot       1.00000           aqu         1           rhg       1.00000  
      49  rtu0049                  0       0.00583      59.69766      10.86626      98.72230        49     s59661n10782e         0         0         0         2           sdc         1           tot       1.00000           aqu         1           rhg       1.00000  
      50  rtu0050                  0       0.31766      59.69665      10.86656      99.05644        50     s59661n10782e         0         0         0         2           sdc       189           tot       1.00000           aqu         1           rhg       1.00000  
      51  rtu0051                  0       0.03666      59.70268      10.87693     105.00763        51     s59661n10782e         0         0         0         2           sdc         1           tot       1.00000           aqu         1           rhg       1.00000  
      52  rtu0052                  0       0.15827      59.70195      10.87642     104.97391        52     s59661n10782e         0         0         0         2           sdc         1           tot       1.00000           aqu         1           rhg       1.00000  
      53  rtu0053                  0       0.09594      59.70076      10.87215     106.12426        53     s59661n10782e         0         0         0         6            ru        58           sur       0.57296            ru        58           lat       0.57296            ru        66           sur       0.42704            ru        66           lat       0.42704           sdc         1           til       1.00000           aqu         1           rhg       1.00000  
      54  rtu0054                  0       0.02450      59.69786      10.87382     106.09345        54     s59661n10782e         0         0         0         4            ru        25           sur       1.00000            ru        25           lat       1.00000           sdc         1           til       1.00000           aqu         1           rhg       1.00000  
      55  rtu0055                  0       0.21244      59.69741      10.87125     101.71586        55     s59661n10782e         0         0         0         4            ru      4083           sur       1.00000            ru      4083           lat       1.00000           sdc         1           til       1.00000           aqu         1           rhg       1.00000  
      56  rtu0056                  0       2.10037      59.69858      10.86646     100.55592        56     s59661n10782e         0         0         0         6            ru        60           sur       0.24003            ru        60           lat       0.24003            ru      1559           sur       0.75997            ru      1559           lat       0.75997           sdc         1           til       1.00000           aqu         1           rhg       1.00000  
      57  rtu0057                  0       0.56736      59.70075      10.87448     103.88580        57     s59661n10782e         0         0         0         8           sdc         1           sur       0.19311           sdc         1           lat       0.19311            ru        27           sur       0.26745            ru        27           lat       0.26745            ru        45           sur       0.53944            ru        45           lat       0.53944           sdc         1           til       1.00000           aqu         1           rhg       1.00000  
      58  rtu0058                  0       0.86029      59.69955      10.87246     103.22540        58     s59661n10782e         0         0         0         4            ru        66           sur       1.00000            ru        66           lat       1.00000           sdc         1           til       1.00000           aqu         1           rhg       1.00000  
      59  rtu0059                  0       1.13055      59.69867      10.86990     101.99277        59     s59661n10782e         0         0         0         4            ru        43           sur       1.00000            ru        43           lat       1.00000           sdc         1           til       1.00000           aqu         1           rhg       1.00000  
      60  rtu0060                  0       0.00640      59.69812      10.86766     100.76018        60     s59661n10782e         0         0         0         4            ru        41           sur       1.00000            ru        41           lat       1.00000           sdc         1           til       1.00000           aqu         1           rhg       1.00000  
      61  rtu0061                  0       0.50608      59.70006      10.87429     103.91967        61     s59661n10782e         0         0         0         6            ru        26           sur       0.74589            ru        26           lat       0.74589            ru        44           sur       0.25411            ru        44           lat       0.25411           sdc         1           til       1.00000           aqu         1           rhg       1.00000  
      62  rtu0062                  0       2.64587      59.69722      10.86817     100.46431        62     s59661n10782e         0         0         0         4            ru      4083           sur       1.00000            ru      4083           lat       1.00000           sdc         1           til       1.00000           aqu         1           rhg       1.00000  
      63  rtu0063                  0       1.09018      59.70382      10.87686     107.09678        63     s59661n10782e         0         0         0         8            ru        52           sur       0.39962            ru        52           lat       0.39962            ru      4599           sur       0.33602            ru      4599           lat       0.33602            ru      4605           sur       0.26437            ru      4605           lat       0.26437           sdc         1           til       1.00000           aqu         1           rhg       1.00000  
      64  rtu0064                  0       0.01980      59.70132      10.87608     106.46917        64     s59661n10782e         0         0         0         6            ru        32           sur       0.50145            ru        32           lat       0.50145            ru        35           sur       0.49855            ru        35           lat       0.49855           sdc         1           til       1.00000           aqu         1           rhg       1.00000  
      65  rtu0065                  0       0.02803      59.69833      10.86808     101.40333        65     s59661n10782e         0         0         0         4            ru        56           sur       1.00000            ru        56           lat       1.00000           sdc         1           til       1.00000           aqu         1           rhg       1.00000  
      66  rtu0066                  0       0.02860      59.70009      10.87329     103.05971        66     s59661n10782e         0         0         0         4           sdc         1           sur       1.00000           sdc         1           lat       1.00000           sdc         1           til       1.00000           aqu         1           rhg       1.00000  
      67  rtu0067                  0       0.02402      59.69904      10.87160     102.06612        67     s59661n10782e         0         0         0         4            ru        59           sur       1.00000            ru        59           lat       1.00000           sdc         1           til       1.00000           aqu         1           rhg       1.00000  
      68  rtu0068                  0       0.00624      59.69814      10.86779     100.81851        68     s59661n10782e         0         0         0         4            ru        41           sur       1.00000            ru        41           lat       1.00000           sdc         1           til       1.00000           aqu         1           rhg       1.00000  
      69  rtu0069                  0       0.09644      59.71091      10.88888     124.64862        69     s59661n10782e         0         0         0         2            ru      6161           tot       1.00000           aqu         1           rhg       1.00000  
      70  rtu0070                  0       0.03699      59.70776      10.89117     117.55075        70     s59661n10782e         0         0         0         2            ru       101           tot       1.00000           aqu         1           rhg       1.00000  
      71  rtu0071                  0       0.14348      59.70845      10.89082     119.99436        71     s59661n10782e         0         0         0         2            ru      6161           tot       1.00000           aqu         1           rhg       1.00000  
      72  rtu0072                  0       0.50770      59.70800      10.89097     118.90822        72     s59661n10782e         0         0         0         4            ru        70           tot       0.58848            ru        97           tot       0.21605            ru        98           tot       0.19547           aqu         1           rhg       1.00000  
      73  rtu0073                  0       0.23723      59.70822      10.89358     117.86883        73     s59661n10782e         0         0         0         3            ru       100           tot       0.57895            ru      6161           tot       0.42105           aqu         1           rhg       1.00000  
      74  rtu0074                  0       0.89396      59.70758      10.88463     115.95989        74     s59661n10782e         0         0         0         2            ru        81           tot       1.00000           aqu         1           rhg       1.00000  
      75  rtu0075                  0       0.31794      59.70875      10.88405     118.69638        75     s59661n10782e         0         0         0         2            ru      4593           tot       1.00000           aqu         1           rhg       1.00000  
      76  rtu0076                  0       0.21884      59.69988      10.88589     101.83428        76     s59661n10782e         0         0         0         2            ru       128           tot       1.00000           aqu         1           rhg       1.00000  
      77  rtu0077                  0       0.00954      59.70698      10.88659     112.96000        77     s59661n10782e         0         0         0         2            ru       139           tot       1.00000           aqu         1           rhg       1.00000  
      78  rtu0078                  0       0.01930      59.70686      10.88715     113.21667        78     s59661n10782e         0         0         0         2            ru        92           tot       1.00000           aqu         1           rhg       1.00000  
      79  rtu0079                  0       0.50460      59.70201      10.88505     106.21154        79     s59661n10782e         0         0         0         2            ru       165           tot       1.00000           aqu         1           rhg       1.00000  
      80  rtu0080                  0       1.26677      59.70786      10.88557     115.56911        80     s59661n10782e         0         0         0         6            ru        74           sur       0.59069            ru        74           lat       0.59069            ru       177           sur       0.40931            ru       177           lat       0.40931           sdc         2           til       1.00000           aqu         1           rhg       1.00000  
      81  rtu0081                  0       0.03593      59.70686      10.88512     112.75028        81     s59661n10782e         0         0         0         4            ru       157           sur       1.00000            ru       157           lat       1.00000           sdc         2           til       1.00000           aqu         1           rhg       1.00000  
      82  rtu0082                  0      21.77502      59.71178      10.88332     123.58493        82     s59661n10782e         0         0         0         6            ru      3721           sur       0.63764            ru      3721           lat       0.63764            ru      3763           sur       0.36236            ru      3763           lat       0.36236           sdc         2           til       1.00000           aqu         1           rhg       1.00000  
      83  rtu0083                  0       2.83006      59.70713      10.89269     114.92706        83     s59661n10782e         0         0         0         4            ru       161           sur       1.00000            ru       161           lat       1.00000           sdc         2           til       1.00000           aqu         1           rhg       1.00000  
      84  rtu0084                  0       2.85858      59.70731      10.88877     114.95656        84     s59661n10782e         0         0         0         4            ru       162           sur       1.00000            ru       162           lat       1.00000           sdc         2           til       1.00000           aqu         1           rhg       1.00000  
      85  rtu0085                  0       0.04621      59.69951      10.88596     100.34415        85     s59661n10782e         0         0         0         4            ru       182           sur       1.00000            ru       182           lat       1.00000           sdc         2           til       1.00000           aqu         1           rhg       1.00000  
      86  rtu0086                  0       7.45905      59.70264      10.88297     108.91560        86     s59661n10782e         0         0         0         6            ru       164           sur       0.68010            ru       164           lat       0.68010            ru       166           sur       0.31990            ru       166           lat       0.31990           sdc         2           til       1.00000           aqu         1           rhg       1.00000  
      87  rtu0087                  0       0.18085      59.70164      10.88545     105.12356        87     s59661n10782e         0         0         0         6            ru       165           sur       0.70356            ru       165           lat       0.70356            ru       183           sur       0.29644            ru       183           lat       0.29644           sdc         2           til       1.00000           aqu         1           rhg       1.00000  
      88  rtu0088                  0       7.06988      59.70485      10.88454     110.76550        88     s59661n10782e         0         0         0         4            ru       168           sur       1.00000            ru       168           lat       1.00000           sdc         2           til       1.00000           aqu         1           rhg       1.00000  
      89  rtu0089                  0       0.00988      59.70527      10.88384     111.78273        89     s59661n10782e         0         0         0         4            ru       168           sur       1.00000            ru       168           lat       1.00000           sdc         2           til       1.00000           aqu         1           rhg       1.00000  