time.sim: written by SWAT+ editor v2.1.0 on 2023-05-25 15:01 for SWAT+ rev.60.5.4
day_start  yrc_start   day_end   yrc_end      step  
       0      2010         0      2015         0  
