topography.hyd: written by SWAT+ editor v2.1.0 on 2023-05-25 15:03 for SWAT+ rev.60.5.4
name                       slp       slp_len       lat_len      dist_cha         depos  
topohru0001            0.19367      30.00000      30.00000     121.00000       0.00000  
topohru0002            0.22488      30.00000      30.00000     121.00000       0.00000  
topohru0003            0.13778      30.00000      30.00000     121.00000       0.00000  
topohru0004            0.26140      30.00000      30.00000     121.00000       0.00000  
topohru0005            0.14970      30.00000      30.00000     121.00000       0.00000  
topohru0006            0.05990      30.00000      30.00000     121.00000       0.00000  
topohru0007            0.21132      30.00000      30.00000     121.00000       0.00000  
topohru0008            0.08637      30.00000      30.00000     121.00000       0.00000  
topohru0009            0.08761      30.00000      30.00000     121.00000       0.00000  
topohru0010            0.06401      30.00000      30.00000     121.00000       0.00000  
topohru0011            0.04561      30.00000      30.00000     121.00000       0.00000  
topohru0012            0.08660      30.00000      30.00000     121.00000       0.00000  
topohru0013            0.06974      30.00000      30.00000     121.00000       0.00000  
topohru0014            0.01603      30.00000      30.00000     121.00000       0.00000  
topohru0015            0.09638      30.00000      30.00000     121.00000       0.00000  
topohru0016            0.05650      30.00000      30.00000     121.00000       0.00000  
topohru0017            0.04120      30.00000      30.00000     121.00000       0.00000  
topohru0018            0.07208      30.00000      30.00000     121.00000       0.00000  
topohru0019            0.09150      30.00000      30.00000     121.00000       0.00000  
topohru0020            0.06471      30.00000      30.00000     121.00000       0.00000  
topohru0021            0.09953      30.00000      30.00000     121.00000       0.00000  
topohru0022            0.11256      30.00000      30.00000     121.00000       0.00000  
topohru0023            0.08160      30.00000      30.00000     121.00000       0.00000  
topohru0024            0.07983      30.00000      30.00000     121.00000       0.00000  
topohru0025            0.05546      30.00000      30.00000     121.00000       0.00000  
topohru0026            0.07294      30.00000      30.00000     121.00000       0.00000  
topohru0027            0.09231      30.00000      30.00000     121.00000       0.00000  
topohru0028            0.13922      30.00000      30.00000     121.00000       0.00000  
topohru0029            0.09924      30.00000      30.00000     121.00000       0.00000  
topohru0030            0.18106      30.00000      30.00000     121.00000       0.00000  
topohru0031            0.02321      30.00000      30.00000     121.00000       0.00000  
topohru0032            0.12274      30.00000      30.00000     121.00000       0.00000  
topohru0033            0.04370      30.00000      30.00000     121.00000       0.00000  
topohru0034            0.10150      30.00000      30.00000     121.00000       0.00000  
topohru0035            0.08305      30.00000      30.00000     121.00000       0.00000  
topohru0036            0.14845      30.00000      30.00000     121.00000       0.00000  
topohru0037            0.11563      30.00000      30.00000     121.00000       0.00000  
topohru0038            0.15197      30.00000      30.00000     121.00000       0.00000  
topohru0039            0.10072      30.00000      30.00000     121.00000       0.00000  
topohru0040            0.08912      30.00000      30.00000     121.00000       0.00000  
topohru0041            0.26000      30.00000      30.00000     121.00000       0.00000  
topohru0042            0.20562      30.00000      30.00000     121.00000       0.00000  
topohru0043            0.20834      30.00000      30.00000     121.00000       0.00000  
topohru0044            0.09970      30.00000      30.00000     121.00000       0.00000  
topohru0045            0.12027      30.00000      30.00000     121.00000       0.00000  
topohru0046            0.20617      30.00000      30.00000     121.00000       0.00000  
topohru0047            0.08765      30.00000      30.00000     121.00000       0.00000  
topohru0048            0.05333      30.00000      30.00000     121.00000       0.00000  
topohru0049            0.15503      30.00000      30.00000     121.00000       0.00000  
topohru0050            0.16357      30.00000      30.00000     121.00000       0.00000  
topohru0051            0.02082      30.00000      30.00000     121.00000       0.00000  
topohru0052            0.00418      30.00000      30.00000     121.00000       0.00000  
topohru0053            0.04566      30.00000      30.00000     121.00000       0.00000  
topohru0054            0.08842      30.00000      30.00000     121.00000       0.00000  
topohru0055            0.01589      30.00000      30.00000     121.00000       0.00000  
topohru0056            0.02874      30.00000      30.00000     121.00000       0.00000  
topohru0057            0.07680      30.00000      30.00000     121.00000       0.00000  
topohru0058            0.03828      30.00000      30.00000     121.00000       0.00000  
topohru0059            0.02756      30.00000      30.00000     121.00000       0.00000  
topohru0060            0.04186      30.00000      30.00000     121.00000       0.00000  
topohru0061            0.10066      30.00000      30.00000     121.00000       0.00000  
topohru0062            0.02477      30.00000      30.00000     121.00000       0.00000  
topohru0063            0.08661      30.00000      30.00000     121.00000       0.00000  
topohru0064            0.05783      30.00000      30.00000     121.00000       0.00000  
topohru0065            0.02200      30.00000      30.00000     121.00000       0.00000  
topohru0066            0.03545      30.00000      30.00000     121.00000       0.00000  
topohru0067            0.03210      30.00000      30.00000     121.00000       0.00000  
topohru0068            0.03543      30.00000      30.00000     121.00000       0.00000  
topohru0069            0.08050      30.00000      30.00000     121.00000       0.00000  
topohru0070            0.06959      30.00000      30.00000     121.00000       0.00000  
topohru0071            0.04036      30.00000      30.00000     121.00000       0.00000  
topohru0072            0.05999      30.00000      30.00000     121.00000       0.00000  
topohru0073            0.03741      30.00000      30.00000     121.00000       0.00000  
topohru0074            0.17273      30.00000      30.00000     121.00000       0.00000  
topohru0075            0.05338      30.00000      30.00000     121.00000       0.00000  
topohru0076            0.15019      30.00000      30.00000     121.00000       0.00000  
topohru0077            0.08891      30.00000      30.00000     121.00000       0.00000  
topohru0078            0.06148      30.00000      30.00000     121.00000       0.00000  
topohru0079            0.06303      30.00000      30.00000     121.00000       0.00000  
topohru0080            0.03404      30.00000      30.00000     121.00000       0.00000  
topohru0081            0.03508      30.00000      30.00000     121.00000       0.00000  
topohru0082            0.02590      30.00000      30.00000     121.00000       0.00000  
topohru0083            0.04392      30.00000      30.00000     121.00000       0.00000  
topohru0084            0.02909      30.00000      30.00000     121.00000       0.00000  
topohru0085            0.28111      30.00000      30.00000     121.00000       0.00000  
topohru0086            0.03716      30.00000      30.00000     121.00000       0.00000  
topohru0087            0.07107      30.00000      30.00000     121.00000       0.00000  
topohru0088            0.02798      30.00000      30.00000     121.00000       0.00000  
topohru0089            0.02277      30.00000      30.00000     121.00000       0.00000  
topohru0090            0.04284      30.00000      30.00000     121.00000       0.00000  
topohru0091            0.07601      30.00000      30.00000     121.00000       0.00000  
topohru0092            0.04339      30.00000      30.00000     121.00000       0.00000  
topohru0093            0.06267      30.00000      30.00000     121.00000       0.00000  
topohru0094            0.05968      30.00000      30.00000     121.00000       0.00000  
topohru0095            0.06703      30.00000      30.00000     121.00000       0.00000  
topohru0096            0.05851      30.00000      30.00000     121.00000       0.00000  
topohru0097            0.05035      30.00000      30.00000     121.00000       0.00000  
topohru0098            0.06562      30.00000      30.00000     121.00000       0.00000  
topohru0099            0.05734      30.00000      30.00000     121.00000       0.00000  
topohru0100            0.03939      30.00000      30.00000     121.00000       0.00000  
topohru0101            0.03058      30.00000      30.00000     121.00000       0.00000  
topohru0102            0.07104      30.00000      30.00000     121.00000       0.00000  
topohru0103            0.09415      30.00000      30.00000     121.00000       0.00000  
topohru0104            0.03036      30.00000      30.00000     121.00000       0.00000  
topohru0105            0.06198      30.00000      30.00000     121.00000       0.00000  
topohru0106            0.07302      30.00000      30.00000     121.00000       0.00000  
topohru0107            0.06394      30.00000      30.00000     121.00000       0.00000  
topohru0108            0.08077      30.00000      30.00000     121.00000       0.00000  
topohru0109            0.04306      30.00000      30.00000     121.00000       0.00000  
topohru0110            0.13569      30.00000      30.00000     121.00000       0.00000  
topohru0111            0.11746      30.00000      30.00000     121.00000       0.00000  
topohru0112            0.05915      30.00000      30.00000     121.00000       0.00000  
topohru0113            0.03914      30.00000      30.00000     121.00000       0.00000  
topohru0114            0.07626      30.00000      30.00000     121.00000       0.00000  
topohru0115            0.07797      30.00000      30.00000     121.00000       0.00000  
topohru0116            0.11953      30.00000      30.00000     121.00000       0.00000  
topohru0117            0.06967      30.00000      30.00000     121.00000       0.00000  
topohru0118            0.08630      30.00000      30.00000     121.00000       0.00000  
topohru0119            0.10181      30.00000      30.00000     121.00000       0.00000  
topohru0120            0.08226      30.00000      30.00000     121.00000       0.00000  
topohru0121            0.11624      30.00000      30.00000     121.00000       0.00000  
topohru0122            0.14509      30.00000      30.00000     121.00000       0.00000  
topohru0123            0.09147      30.00000      30.00000     121.00000       0.00000  
topohru0124            0.18142      30.00000      30.00000     121.00000       0.00000  
topohru0125            0.08349      30.00000      30.00000     121.00000       0.00000  
topohru0126            0.06483      30.00000      30.00000     121.00000       0.00000  
topohru0127            0.07879      30.00000      30.00000     121.00000       0.00000  
topohru0128            0.15837      30.00000      30.00000     121.00000       0.00000  
topohru0129            0.08113      30.00000      30.00000     121.00000       0.00000  
topohru0130            0.07489      30.00000      30.00000     121.00000       0.00000  
topohru0131            0.07585      30.00000      30.00000     121.00000       0.00000  
topohru0132            0.06457      30.00000      30.00000     121.00000       0.00000  
topohru0133            0.05208      30.00000      30.00000     121.00000       0.00000  
topohru0134            0.05558      30.00000      30.00000     121.00000       0.00000  
topohru0135            0.07347      30.00000      30.00000     121.00000       0.00000  
topohru0136            0.10239      30.00000      30.00000     121.00000       0.00000  
topohru0137            0.16855      30.00000      30.00000     121.00000       0.00000  
topohru0138            0.23525      30.00000      30.00000     121.00000       0.00000  
topohru0139            0.10207      30.00000      30.00000     121.00000       0.00000  
topohru0140            0.07992      30.00000      30.00000     121.00000       0.00000  
topohru0141            0.05639      30.00000      30.00000     121.00000       0.00000  
topohru0142            0.07798      30.00000      30.00000     121.00000       0.00000  
topohru0143            0.05878      30.00000      30.00000     121.00000       0.00000  
topohru0144            0.15974      30.00000      30.00000     121.00000       0.00000  
topohru0145            0.16404      30.00000      30.00000     121.00000       0.00000  
topohru0146            0.09758      30.00000      30.00000     121.00000       0.00000  
topohru0147            0.07755      30.00000      30.00000     121.00000       0.00000  
topohru0148            0.04418      30.00000      30.00000     121.00000       0.00000  
topohru0149            0.06786      30.00000      30.00000     121.00000       0.00000  
topohru0150            0.07571      30.00000      30.00000     121.00000       0.00000  
topohru0151            0.08064      30.00000      30.00000     121.00000       0.00000  
topohru0152            0.04948      30.00000      30.00000     121.00000       0.00000  
topohru0153            0.04508      30.00000      30.00000     121.00000       0.00000  
topohru0154            0.08444      30.00000      30.00000     121.00000       0.00000  
topohru0155            0.06660      30.00000      30.00000     121.00000       0.00000  
topohru0156            0.06418      30.00000      30.00000     121.00000       0.00000  
topohru0157            0.04686      30.00000      30.00000     121.00000       0.00000  
topohru0158            0.02133      30.00000      30.00000     121.00000       0.00000  
topohru0159            0.02138      30.00000      30.00000     121.00000       0.00000  
topohru0160            0.02665      30.00000      30.00000     121.00000       0.00000  
topohru0161            0.04233      30.00000      30.00000     121.00000       0.00000  
topohru0162            0.03151      30.00000      30.00000     121.00000       0.00000  
topohru0163            0.04586      30.00000      30.00000     121.00000       0.00000  
topohru0164            0.02615      30.00000      30.00000     121.00000       0.00000  
topohru0165            0.05932      30.00000      30.00000     121.00000       0.00000  
topohru0166            0.06698      30.00000      30.00000     121.00000       0.00000  
topohru0167            0.03779      30.00000      30.00000     121.00000       0.00000  
topohru0168            0.02225      30.00000      30.00000     121.00000       0.00000  
topohru0169            0.02526      30.00000      30.00000     121.00000       0.00000  
topohru0170            0.03217      30.00000      30.00000     121.00000       0.00000  
topohru0171            0.04165      30.00000      30.00000     121.00000       0.00000  
topohru0172            0.07873      30.00000      30.00000     121.00000       0.00000  
topohru0173            0.03996      30.00000      30.00000     121.00000       0.00000  
topohru0174            0.07316      30.00000      30.00000     121.00000       0.00000  
topohru0175            0.06441      30.00000      30.00000     121.00000       0.00000  
topohru0176            0.04979      30.00000      30.00000     121.00000       0.00000  
topohru0177            0.06093      30.00000      30.00000     121.00000       0.00000  
topohru0178            0.03090      30.00000      30.00000     121.00000       0.00000  
topohru0179            0.01595      30.00000      30.00000     121.00000       0.00000  
topohru0180            0.02810      30.00000      30.00000     121.00000       0.00000  
topohru0181            0.04759      30.00000      30.00000     121.00000       0.00000  
topohru0182            0.10806      30.00000      30.00000     121.00000       0.00000  
topohru0183            0.11027      30.00000      30.00000     121.00000       0.00000  
topohru0184            0.12072      30.00000      30.00000     121.00000       0.00000  
topohru0185            0.16373      30.00000      30.00000     121.00000       0.00000  
topohru0186            0.07852      30.00000      30.00000     121.00000       0.00000  
topohru0187            0.09000      30.00000      30.00000     121.00000       0.00000  
topohru0188            0.10906      30.00000      30.00000     121.00000       0.00000  
topohru0189            0.06853      30.00000      30.00000     121.00000       0.00000  
topohru0190            0.08754      30.00000      30.00000     121.00000       0.00000  
topohru0191            0.06012      30.00000      30.00000     121.00000       0.00000  
topohru0192            0.05917      30.00000      30.00000     121.00000       0.00000  
topohru0193            0.05951      30.00000      30.00000     121.00000       0.00000  
topohru0194            0.05484      30.00000      30.00000     121.00000       0.00000  
topohru0195            0.09305      30.00000      30.00000     121.00000       0.00000  
topohru0196            0.07139      30.00000      30.00000     121.00000       0.00000  
topohru0197            0.01876      30.00000      30.00000     121.00000       0.00000  
topohru0198            0.05432      30.00000      30.00000     121.00000       0.00000  
topohru0199            0.11292      30.00000      30.00000     121.00000       0.00000  
topohru0200            0.04591      30.00000      30.00000     121.00000       0.00000  
topohru0201            0.06608      30.00000      30.00000     121.00000       0.00000  
topohru0202            0.07245      30.00000      30.00000     121.00000       0.00000  
topohru0203            0.04812      30.00000      30.00000     121.00000       0.00000  
topohru0204            0.03111      30.00000      30.00000     121.00000       0.00000  
topohru0205            0.04332      30.00000      30.00000     121.00000       0.00000  
topohru0206            0.09666      30.00000      30.00000     121.00000       0.00000  
topohru0207            0.22412      30.00000      30.00000     121.00000       0.00000  
topohru0208            0.11296      30.00000      30.00000     121.00000       0.00000  
topohru0209            0.16561      30.00000      30.00000     121.00000       0.00000  
topohru0210            0.10249      30.00000      30.00000     121.00000       0.00000  
topohru0211            0.02576      30.00000      30.00000     121.00000       0.00000  
topohru0212            0.13701      30.00000      30.00000     121.00000       0.00000  
topohru0213            0.16161      30.00000      30.00000     121.00000       0.00000  
topohru0214            0.16380      30.00000      30.00000     121.00000       0.00000  
topohru0215            0.08077      30.00000      30.00000     121.00000       0.00000  
topohru0216            0.13850      30.00000      30.00000     121.00000       0.00000  
topohru0217            0.07875      30.00000      30.00000     121.00000       0.00000  
topohru0218            0.09611      30.00000      30.00000     121.00000       0.00000  
topohru0219            0.17740      30.00000      30.00000     121.00000       0.00000  
topohru0220            0.07218      30.00000      30.00000     121.00000       0.00000  
topohru0221            0.08816      30.00000      30.00000     121.00000       0.00000  
topohru0222            0.05728      30.00000      30.00000     121.00000       0.00000  
topohru0223            0.16302      30.00000      30.00000     121.00000       0.00000  
topohru0224            0.32254      30.00000      30.00000     121.00000       0.00000  
topohru0225            0.17353      30.00000      30.00000     121.00000       0.00000  
topohru0226            0.00120      30.00000      30.00000     121.00000       0.00000  
topohru0227            0.00018      30.00000      30.00000     121.00000       0.00000  
topohru0228            0.00364      30.00000      30.00000     121.00000       0.00000  
topohru0229            0.44709      30.00000      30.00000     121.00000       0.00000  
topohru0230            0.03337      30.00000      30.00000     121.00000       0.00000  
topohru0231            0.00146      30.00000      30.00000     121.00000       0.00000  
topohru0232            0.00439      30.00000      30.00000     121.00000       0.00000  
topohru0233            0.05274      30.00000      30.00000     121.00000       0.00000  
topohru0234            0.00023      30.00000      30.00000     121.00000       0.00000  
topohru0235            0.00016      30.00000      30.00000     121.00000       0.00000  
topohru0236            0.39362      30.00000      30.00000     121.00000       0.00000  
topohru0237            0.34440      30.00000      30.00000     121.00000       0.00000  
topohru0238            0.39928      30.00000      30.00000     121.00000       0.00000  
topohru0239            0.16538      30.00000      30.00000     121.00000       0.00000  
topohru0240            0.10877      30.00000      30.00000     121.00000       0.00000  
topohru0241            0.09381      30.00000      30.00000     121.00000       0.00000  
topohru0242            0.31469      30.00000      30.00000     121.00000       0.00000  
topohru0243            0.25615      30.00000      30.00000     121.00000       0.00000  
topohru0244            0.16471      30.00000      30.00000     121.00000       0.00000  
topohru0245            0.12990      30.00000      30.00000     121.00000       0.00000  
topohru0246            0.22416      30.00000      30.00000     121.00000       0.00000  
topohru0247            0.11090      30.00000      30.00000     121.00000       0.00000  
topohru0248            0.11017      30.00000      30.00000     121.00000       0.00000  
topohru0249            0.34514      30.00000      30.00000     121.00000       0.00000  
topohru0250            0.33255      30.00000      30.00000     121.00000       0.00000  
topohru0251            0.12836      30.00000      30.00000     121.00000       0.00000  
topohru0252            0.12815      30.00000      30.00000     121.00000       0.00000  
topohru0253            0.08236      30.00000      30.00000     121.00000       0.00000  
topohru0254            0.14415      30.00000      30.00000     121.00000       0.00000  
topohru0255            0.17499      30.00000      30.00000     121.00000       0.00000  
topohru0256            0.17194      30.00000      30.00000     121.00000       0.00000  
topohru0257            0.15141      30.00000      30.00000     121.00000       0.00000  
topohru0258            0.36141      30.00000      30.00000     121.00000       0.00000  
topohru0259            0.05829      30.00000      30.00000     121.00000       0.00000  
topohru0260            0.37082      30.00000      30.00000     121.00000       0.00000  
topohru0261            0.11797      30.00000      30.00000     121.00000       0.00000  
topohru0262            0.15362      30.00000      30.00000     121.00000       0.00000  
topohru0263            0.10561      30.00000      30.00000     121.00000       0.00000  
topohru0264            0.11663      30.00000      30.00000     121.00000       0.00000  
topohru0265            0.08744      30.00000      30.00000     121.00000       0.00000  
topohru0266            0.10146      30.00000      30.00000     121.00000       0.00000  
topohru0267            0.22393      30.00000      30.00000     121.00000       0.00000  
topohru0268            0.03785      30.00000      30.00000     121.00000       0.00000  
topohru0269            0.18812      30.00000      30.00000     121.00000       0.00000  
topohru0270            0.09121      30.00000      30.00000     121.00000       0.00000  
topohru0271            0.03575      30.00000      30.00000     121.00000       0.00000  
topohru0272            0.06036      30.00000      30.00000     121.00000       0.00000  
topohru0273            0.17713      30.00000      30.00000     121.00000       0.00000  
topohru0274            0.19148      30.00000      30.00000     121.00000       0.00000  
topohru0275            0.11905      30.00000      30.00000     121.00000       0.00000  
topohru0276            0.33350      30.00000      30.00000     121.00000       0.00000  
topohru0277            0.05942      30.00000      30.00000     121.00000       0.00000  
topohru0278            0.08933      30.00000      30.00000     121.00000       0.00000  
topohru0279            0.13080      30.00000      30.00000     121.00000       0.00000  
topohru0280            0.35470      30.00000      30.00000     121.00000       0.00000  
topohru0281            0.12513      30.00000      30.00000     121.00000       0.00000  
topohru0282            0.07693      30.00000      30.00000     121.00000       0.00000  
topohru0283            0.08256      30.00000      30.00000     121.00000       0.00000  
topohru0284            0.06574      30.00000      30.00000     121.00000       0.00000  
topohru0285            0.32561      30.00000      30.00000     121.00000       0.00000  
topohru0286            0.28067      30.00000      30.00000     121.00000       0.00000  
topohru0287            0.37499      30.00000      30.00000     121.00000       0.00000  
topohru0288            0.32130      30.00000      30.00000     121.00000       0.00000  
topohru0289            0.30916      30.00000      30.00000     121.00000       0.00000  
topohru0290            0.25072      30.00000      30.00000     121.00000       0.00000  
topohru0291            0.22869      30.00000      30.00000     121.00000       0.00000  
topohru0292            0.24808      30.00000      30.00000     121.00000       0.00000  
topohru0293            0.25097      30.00000      30.00000     121.00000       0.00000  
topohru0294            0.05848      30.00000      30.00000     121.00000       0.00000  
topohru0295            0.11839      30.00000      30.00000     121.00000       0.00000  
topohru0296            0.12390      30.00000      30.00000     121.00000       0.00000  
topohru0297            0.13304      30.00000      30.00000     121.00000       0.00000  
topohru0298            0.14571      30.00000      30.00000     121.00000       0.00000  
topohru0299            0.15859      30.00000      30.00000     121.00000       0.00000  
topohru0300            0.23352      30.00000      30.00000     121.00000       0.00000  
topohru0301            0.20899      30.00000      30.00000     121.00000       0.00000  
topohru0302            0.06127      30.00000      30.00000     121.00000       0.00000  
topohru0303            0.14042      30.00000      30.00000     121.00000       0.00000  
topohru0304            0.05233      30.00000      30.00000     121.00000       0.00000  
topohru0305            0.02723      30.00000      30.00000     121.00000       0.00000  
topohru0306            0.06376      30.00000      30.00000     121.00000       0.00000  
topohru0307            0.18050      30.00000      30.00000     121.00000       0.00000  
topohru0308            0.13254      30.00000      30.00000     121.00000       0.00000  
topohru0309            0.23460      30.00000      30.00000     121.00000       0.00000  
topohru0310            0.20643      30.00000      30.00000     121.00000       0.00000  
topohru0311            0.09662      30.00000      30.00000     121.00000       0.00000  
topohru0312            0.01350      30.00000      30.00000     121.00000       0.00000  
topohru0313            0.17949      30.00000      30.00000     121.00000       0.00000  
topohru0314            0.19001      30.00000      30.00000     121.00000       0.00000  
topohru0315            0.21628      30.00000      30.00000     121.00000       0.00000  
topohru0316            0.05062      30.00000      30.00000     121.00000       0.00000  
topohru0317            0.02410      30.00000      30.00000     121.00000       0.00000  
topohru0318            0.15181      30.00000      30.00000     121.00000       0.00000  
topohru0319            0.04751      30.00000      30.00000     121.00000       0.00000  
topohru0320            0.16300      30.00000      30.00000     121.00000       0.00000  
topohru0321            0.04158      30.00000      30.00000     121.00000       0.00000  
topohru0322            0.03335      30.00000      30.00000     121.00000       0.00000  
topohru0323            0.07892      30.00000      30.00000     121.00000       0.00000  
topohru0324            0.01472      30.00000      30.00000     121.00000       0.00000  
topohru0325            0.01119      30.00000      30.00000     121.00000       0.00000  
topohru0326            0.05456      30.00000      30.00000     121.00000       0.00000  
topohru0327            0.05277      30.00000      30.00000     121.00000       0.00000  
topohru0328            0.07172      30.00000      30.00000     121.00000       0.00000  
topohru0329            0.08309      30.00000      30.00000     121.00000       0.00000  
topohru0330            0.08270      30.00000      30.00000     121.00000       0.00000  
topohru0331            0.08376      30.00000      30.00000     121.00000       0.00000  
topohru0332            0.10507      30.00000      30.00000     121.00000       0.00000  
topohru0333            0.04078      30.00000      30.00000     121.00000       0.00000  
topohru0334            0.03549      30.00000      30.00000     121.00000       0.00000  
topohru0335            0.07386      30.00000      30.00000     121.00000       0.00000  